2023-01-03 11:51:09,713 INFO:<BrokerConnection node_id=bootstrap-0 host=10.50.0.5:9092 <connecting> [IPv4 ('10.50.0.5', 9092)]>: connecting to 10.50.0.5:9092 [('10.50.0.5', 9092) IPv4]
2023-01-03 11:51:09,713 INFO:Probing node bootstrap-0 broker version
2023-01-03 11:51:09,916 INFO:<BrokerConnection node_id=bootstrap-0 host=10.50.0.5:9092 <connecting> [IPv4 ('10.50.0.5', 9092)]>: Connection complete.
2023-01-03 11:51:10,227 INFO:Broker version identified as 2.5.0
2023-01-03 11:51:10,228 INFO:Set configuration api_version=(2, 5, 0) to skip auto check_version requests on startup
2023-01-03 11:51:10,231 INFO:Message Generated From File /users/grad/ifath/amnis-data-sync/MFSTDataDir/868.txt
2023-01-03 11:51:10,438 INFO:      File has been sent ->  Topic: inputTopic; File ID: File: 1
2023-01-03 11:51:10,438 INFO:Topic-name: inputTopic; Message ID: 1; Message: BA5KHZIKUKL6MSWLXT5OQ2HI9CBMCPNC118NODR93HQBCYQKRON693DZCCUBA3VAL45LHONAQE33ZQIVMJXLGHAC8L8JW971N3ZTCJGLDCT312L040L13YVONJKELJSE7PVOU6DVAZE6N2OJIZ2NR4X08HSBN2DZRYNQVEZFT4SM9IWJZ6TOAPJZ5ESJRBGXAC5HKQFL44JGTSO7OC5EBMR67K4AC2XDU7Y2PQD2CJI38PRTCL7OZ7PYBBIOLFLLXOQ84N8JHH3P3122I6FQZ1QLQANBLKJ56CWBXZ8RGMPE9RE5F53ZA3GMKHTAV6XUU5LMV2UM56TC971K66841ZCUAYW19AORHBL71LPNYDCWMNPJWB5SXVRX9M1FGXXP05TL8XRATCJY2T7Q9TNGPB865566UA49UYFX98MFD63KNDR7PDQ8H9P1D2BJ136HR2DGJ15P9X73INVI6D49XSH973CY5RLI7OMGFT1DH7N3HCMDJJ4F0IQ5GCY99ZTLF8EG4Q8XIUQYSF01P22Y9AWK7GAFVJA019NMZYFU1W7FHLLPSZCS5520PS8KP5VBVBAW7DF3R27D7FNBOPF9E5OBHY05F5KRZEHIEA3GZWDWYWRK6WOGBY50NU7B4ZK4YAARI8QIBSQQ0IX6JT5VWTX48Z1LM4X9PSU3HXS44VQNX827HR2VQTTFACQMEZE5O2TIJJ2CDKD874PO1EC5FM3FEFHUKGFGE2MT3DWMNF6V5K2PFUE8KPTB7SNB5984UH6HCCO0XFHR74VHB5LT0K79M5RC4VJ6JQ0PX5XI7T63BIJEHW9FM0PY0XZA04F7M1F2RK2NEXM6AMHEWZAR7MAN9PKY7H54R5MZYZTG75OL1MFDQP5ELM4VQCNNCN59YSH6E5T6PIX7TQ95GOMEV9JNHSBWEFPU5JKQ4WH5IS2B28B129F6NTBRHZ314XCXSID5OYK7B1DVT002EA8QZ51HZWNUJ56NWOIPWO0WX15JW8OUZ7PR4IWOCCZHPJ7Grrrr 1
2023-01-03 11:51:10,439 INFO:<BrokerConnection node_id=1 host=10.50.0.5:9092 <connecting> [IPv4 ('10.50.0.5', 9092)]>: connecting to 10.50.0.5:9092 [('10.50.0.5', 9092) IPv4]
2023-01-03 11:51:10,439 INFO:Message Generated From File /users/grad/ifath/amnis-data-sync/MFSTDataDir/401.txt
2023-01-03 11:51:10,440 INFO:      File has been sent ->  Topic: inputTopic; File ID: File: 2
2023-01-03 11:51:10,440 INFO:Topic-name: inputTopic; Message ID: 2; Message: IJN3BPGU31H024OVQW6A2CMSSK6D5FYF2I4W5ZSS6GEM47P3AKV6MY0BTK2DHV9XEHMPFCLGXBLJ6RO59A7HRJLLTBJ6ICHO7AMIMZ8N31UACKLRAXTSM1N26SB1GQ1HYYHUNAY535YN18TGELL1YMA01LJGUI7NBMH1HTOP176E57PC83IACIBFUCK4ZVJ9W2XR6SSD51FBZV1V77A1PXAHRWHO0HYJKPSICROAE4QBUFFEAFL6DU2PX8HBWR2CY17Z82D1JOIJZ8WHSAJYA8AQUNFQSS8DXDHBE24O5MCUS6M54JWWNIG9ZDIB7G2SGFRZL0GM8TF94N3QATCD9JL704N33FIHG9QCJ8AYFGF2WQ62SWTA0QM2AG6LX7LIYIBPCSX26G6PE41CD1ZHUGMI4AQR5EZE1SRM6P7YVHHY4HA2JELVHXQUISQX56NXC6V9EZ8CKAJLGWVDMWX49SRN5DI6FALPD1O6DO79OJ2E0ASLDBJS6H9G9U3Q7NTCQNCAX5ONY8U9Y14GLGAJ67JOJLRXUIZF1VX8KNQWQMGEGJ2U52L2ST4T3L0X0CHRNAKCJE5C5MN54OH2DEXSRFMNA3CDDDQ3R6U6BMGZ147Y43DPU17LYIVDE5AJ1LMHCJAJROB8TVX0EE915IWR1BP3MGFR13I47P90SFK2EZM6QE4H149PEWMIGRQ6J2FL45G21GVC4OEXC7EHSSGQT7V3AYK452NH0MPP1NMOV61CYY0B4FO1Y02BVMYBTQRGDN975YCUUSO03J2DTO3I0OL03LMLWRKQOUEZDC8YJAX4P11G591WJ2FI0L3KUL7ZG1Y9MEL1HPL2GJPCMHTUUEGS6GAY1RCCK4DUH5Q60A48SACGS50112NYS0INX9KWUHQPNRZ3TDKOWJLQO6CRNYBRYJ24F2KSEVA961L1IOGAPZ1REL35JE83PXUDTMLWL2U1OBWM4OEB7FVK6BRDIONMMWEO2O0IV99EIC3QG2OZ16N2ZXAY6U6N9FR3W16Jrrrr 2
2023-01-03 11:51:10,440 INFO:Message Generated From File /users/grad/ifath/amnis-data-sync/MFSTDataDir/947.txt
2023-01-03 11:51:10,440 INFO:      File has been sent ->  Topic: inputTopic; File ID: File: 3
2023-01-03 11:51:10,440 INFO:Topic-name: inputTopic; Message ID: 3; Message: ZHWZP4VR8W1OX97QR68EV3ZG5SCG1C4RS4426LX1SI63TY4DHAV7YLK3RJBL7M3EHR8IBZDNYD0DTSMX37XY4OGV8IRUV98NZGIZ2N68E81MGL4P3FKNNO6CZEKK4NWIG47L9BGHQD8CHPBZJKFIKWWSXO5I42CG9J3G6HOLTP8PCKFJKMVE89V91VEXL8FAU9ACZ5QC5FPM7E4JQWDTL4CG1RF1ID5WQUIGXINPO7226MES7Y2ZESTTULJMDTRUDL0NGXK2MZPDF1C72CDVXH47WWR1OIS5WOOAKJ6G911HJ5GICVS02BMZ1EV3Q7ERX4N38A2ZLK11UGXXN7ZCWO15KAJGANG4RE7EE46QA4LU6JRTU2ONNFQHS01R6I78DPJ2Q1VHH151ZA7OGBTRLQPIZ3YCUI3IHMLS5899YNBPYB7PZ4Q6LWH91GFMLOMXQ8DQJ3N2RYRKDRQSZ7TJQ2E2ORHUTH23VOBBFSWSJ5HAC60UJ06JP1ZTAWX3FB147DG8DXJVCC3A5GY82C8S510642VJ9RQM2PDVXAT1Z7I7VFMZ3D22OZ783MIXOIMX8HYVD09YBFNTYDAWZ9H91XSTAS0FBLI714TU7K8U72ICVKJVSKYKKQ7MB6KJ1HIHSEPF4JX4AO9QJC10Q7IHD4RG2E34BEXBDTHW30U3AOMXMDZEKSJ83BXKES125RELFNA3I5Q75GRVK9G7XUAQ2AM41DCJC3XDZF0ANBR5OC1NRKZG1XW32BS7X2I5MLVMBM713KEY7FPG5K5R4OCJ9W7VPXU6M2OSC7J9RGELJ8W5EM49IDCD2N27T0KF8KONWUZQ4ELPTA1GEUK8UJGWN4JA39AW8A86NBQT11ZXCJV8HLH7HBLDJDNX38DFWS5NVP70YSO7TQA3S3MLPNPSJBOQSCX2D0PUOXL04KDJG6VZ9M9KFEV7F90KHOXT5C26VPUPE7ZYLBF6L4013QE8KRCG9CZWPO6UAFYGQ9Z9BRS9FLTDI2YXME2YILXMXWS9rrrr 3
2023-01-03 11:51:10,441 INFO:Message Generated From File /users/grad/ifath/amnis-data-sync/MFSTDataDir/626.txt
2023-01-03 11:51:10,441 INFO:      File has been sent ->  Topic: inputTopic; File ID: File: 4
2023-01-03 11:51:10,441 INFO:Topic-name: inputTopic; Message ID: 4; Message: ZH99EXVKDRG7N3CP44IE5MZLNQUQQF03NW2P0WJL475H3J6DG5ZINEUG4FFHZCTEN5UEVP51KZ6IEQ98I3H3LCW7TCU9VTUM8G7J15WAIHBCC34TJ9B21U2YW4FQCQ5AK4SYQI64XU5PF2CEFC2FDXQCK5QA5ZIDEF5UAR2VXV8VQUUS4JEIMIRUSJ6HXLF3ZIGIZUG1240R3WNM9ZDSE8ONGGBGZ9A3K0C9GWXF6JGYSYLDKUR8J0J7AVBN9DSM58MEKSR3SDM664VA5EQEID1SN90RN8AJGZK3OBCUDF0QZWFKS8UK4NNPXVVKTJWEJSGBLRJEU79016DRMFNILV4O5JNYTWU0XF0HZ2604IXAKM91V3ED8JXN6J1UZJXFKOJYPUKPJ3PYOSKT7QGIBIW064P2D5WLZS0WS6GV87S5JXVNS9KEICPLBFBDHD7BTIR1FZE2OV8RKGYVZF91P79V1IDUB3KXPW39Q4DC1FTTP2MPL5N9DVC2CTAM267BZWVJ01M2UPYLPZ70JP3DF6YM2NWB76R28A0JK1C10YCVQYFCCX2VJMW3BLIK9HPL6AL3JFS5YXHZ8RARUAZ6CCJIZU2W00BTWN5K0KG3AOP4XZVS47VJKXAN6EJPZ7SK082E6F3DKN4AZ03W284M9QYBUQMSEB4E3NLULWNLZI5F5MFLRKA5BZ8DPYPD83TTTDS5GGWJXONVX2ZT34NH3J8W8MD38EWNWRPGGIA3L2BOZE17F3XJY6TUQQ32PD2A6BQH4U1PJN1XN4MAGP96GR79G4SY8HZNAL7IHZ1I2W00H39DP3G0UEJZPW16ATXFGDTNLAABD7QXD51LCL58PRFLAS6R4U13D8IKEV8SXPBULMJ4TO0B3F4W1259TGZZ5NDD9PSJUNANHIAZ722G7NKW4F7KLNNMC7TPB01YX1RRN0D1PINSY95ZGUUHRN3JS0LAT1OXCM1MA0SVPM3VK0BOWTVAYDU9TY2GATY472KAZUARDUHJDSZTC4JKI506rrrr 4
2023-01-03 11:51:10,441 INFO:Message Generated From File /users/grad/ifath/amnis-data-sync/MFSTDataDir/546.txt
2023-01-03 11:51:10,441 INFO:      File has been sent ->  Topic: inputTopic; File ID: File: 5
2023-01-03 11:51:10,442 INFO:Topic-name: inputTopic; Message ID: 5; Message: TWYV66NM8L943OH4OU87U8TXO48QWA8RCAYW7HOF8SE6SJ0RKQZ5NH3RUVKOYPV62V0ATI5E4JDVYI89XI29K64ZPBPK42DYJL92NNVI3BZ74DBBH7M80I1ZNQL0YSK355GQIS9WVHI0PP977XJFYCVTX3A86YGNO63GJEAWSZ0SD3ENF7ESPCAERIPXOIJYZAQM9DD8SSDOZIYU73E2U536QLJJG44M25PENADRZLK9ZR2PDTLLLID837F7ZYTUGWA6D532BMGEJJIFQK9S4FXAK13WVTZPKNB0B4RTRIS5359SQB9KSNH2GJIDDEAX2YB8TW4W9ZQVS0T7JGCQBQRTTNOGNY149PVJSNU7O15LCOUCCF897U45AYDESMHTYQE6DENWTP4AK8FIVEVP1VZ5775S5C7DP2SGZGKFV7C330F5RV74RMFPUXXH7SDDDJHJ9Y6NMP6JILWV7RK7CJZZNCIJZPR9UFLCSGTZSTF5G46ZB1QEHVWVPNMC0I26O8HAVWRZ9XM8YMG6DJYN9IETRVS1EM5Y0SVTPBGO4GZEEALCFSWYX386ZPGS3JMLHHVF5Q5L5GXD7ILWXOCDAC8BEHURLAE57ZEP4G4SNUJSUILHJBDPG7BV57JYNDZSEOPXIFMTZQOMWS5JXWQN8LVARIKHKOTWM6ZDGN8VNTEHZJHVWDJVSCG42VWSJXNJT9RKVF1SH6KKYFUIBVL4JYBHRNI9T2Y5RWF8NVAXY94OGUV13DJPUGNIIW6HDVX6I64RHOJW6VJ5V7LWC625PA1FJ9H6DVICL7RFXCSIKJEIKHPEILF1WX62TINSZT8AH9WELP7GED353PW3KXL485QP8PG80F2BTPDM7RPL8GPOQJECVUUQOFCKKTZS8RNFHYHS8G6S45L3TMH767M1YGYCZ0MRTTBJZUTTAOUD16RV55VURML8J2MTQM030U6H30M7Z1UYS1135DP7UG4FMEVASKTHTRMPY0AZ1U0VJDI50UP8JG09SXXKVBTVCH7Srrrr 5
2023-01-03 11:51:10,442 INFO:Message Generated From File /users/grad/ifath/amnis-data-sync/MFSTDataDir/940.txt
2023-01-03 11:51:10,442 INFO:      File has been sent ->  Topic: inputTopic; File ID: File: 6
2023-01-03 11:51:10,442 INFO:Topic-name: inputTopic; Message ID: 6; Message: PJSD40P8YITC7L2I6MFU4FZE0GHNJTLR4FXB61KO1FU5RB95JLEX8YMIZVHRS9NMHUYB31EG6323ZJCAD8T0G4ZQUZJYKZ8RV6SLHOJQYHA7ZWMLZRLM6CMXV8689OH1KR849WWGV0LF798PW0GEBUS309NAS9A22TRBFVLJ4WGR6SQ7FJVE5KM5C6TRB0ZOJUA6ZS8NPRPCFTJZL3O2JCDB415JFAQSHLO6NJD60PGE5VDOWHB3Y3S2BDKESTBKDT083MTLHD9DGWXUO4BN6S02H98QQOHKEZU14BFKRUB9D0E3LMRX5BFWYK6BFIEP71IUP9EZLL3M97XUQHT0CCOOU0XY2MEY8TBXK46M4FL6GJNM5260DK7AGOS2RWAM9C6OEUTIR6NU20YDN3IDLIFGT54AHEWE9E389RWVBNX3B9XZAFKSR97O43W8UUS5EE3CD81VAL76JB11UBF72G5RNMHGC33ZDE2DW3PEYILXQK7RVXFW35J0HYN5OHMY2ZS6Q4WE6HJBCS6TG9F7YO7AWDXPKQPR095CKS15CRSZCCR1FLXM5ZIWESSNP9I64PFD0W9Q1BY7W4L75LZQUV1LGFOHKVJ79NZZPPANXS4D505N89ZI6E2ML1AFSYAJ01J2QHGEEGCXSFM0G431PTM1WG0HE29HP16TU2GSQC5Z0ES086C58AVJOL9PDD72B666XTK3XLKULBQVETNHW9J58M51TGSDEKKU5ITTEWETRD2CGH5K7XI2O8XSHWASDT1VMYPIG9XJ8J0H8K41UAACVRP4E7UP4P27FSWSH389PYA5GMN05QO3DXR2KQR0M0FG6B7WKHRTW22VK4DBBFXC7KL3RFJUKEEJVJR0GXZY8N40MPY564YXPDXZQEPQXVAXHYYUGU85GITQV69D5LNSFQ677UGDHU1N49HZ62829XVCAHCTIV037EBBNGP0GBUCWETWLEGUW2TDZU3TZXP0KML3I7X4MQ3U4KWR7GWZP68NPRKJ6UVUX7QX6692rrrr 6
2023-01-03 11:51:10,442 INFO:Message Generated From File /users/grad/ifath/amnis-data-sync/MFSTDataDir/522.txt
2023-01-03 11:51:10,443 INFO:      File has been sent ->  Topic: inputTopic; File ID: File: 7
2023-01-03 11:51:10,443 INFO:Topic-name: inputTopic; Message ID: 7; Message: IXCMJPNOGQW7CX9AITCTLE1ZKPMR8R2RD6AG5E2K4WRRH8KJITT8BACEBF17BBB2WWV65OFW6I337GVRTYXWH9DG7HJ9C4NU3XFTM2GULPWG86EF0H5XY8CNGJFJG0CFPSR4O4F8AN3R4H6OKFEGVGA28P8AOZO9NUN61H1WHVR6OGGRJEIH0RF5QK87WS1IX7IWVEXHOTGEX6OJ9T841XL4N6BDFZI5DWVII2NTJ7G4TMI47V8RZMMOUR0DRHUPKWY04LWNDLVKM9M3V7SVVJU5OA8YFILCFYT0N9FAQESQ3CHBWMNPUJ7NVD13SIBCLH9WL0VP5SXTW18TN7OFDZARX7P6BBNVRY8AJRDUQ540TYRBI022YW8V7AAPO10A990MY2JJGHUEVXOPPIZCBX0SFNUWPQAEBUN4ZTUR7X4EVEF752W58SZ5Z8OT0I5NMHMCR6LVV96QRKPOSXQIUPFQXOJ0M4G07T8WEKWMV8II39DTLHORRC7BGOM94V7V1EL53N4MRK4QZ57A7XU2JKGSIC3X4D2DZAXEGAVACP2Z90VGFZ03K878FEEH766JBWZR1TDOKO53YENEQTIG5DVSS48Z3H23PDMI98E3I5D8GYQ7F28QCOYMZ3PWBM0XENB80Y7HS2MQOK8TCCD7E2ZC7SV3ZCTHQSRNVWQFSMI0KL4OSQ9OJRJEGHVT2LECAC2BIIVPPVLWOUB5CCYHERZGFS5CR23P4I1FY2M5GMMOPTBS4WRF04RHN2WJI2QYCY2JTPEE4NROU7FWEK76FNTP3K8VMQB26TFZTUMKB9K3RW908HMAXIN5M95GXIZLV8Y19AVJS201C55EBGPB32KN4ERA9F7T64KWTENPGJUBTHFDMO3OIOJLJK381R6H0CCB0NN8UWIRYH4LJDNM8DO4X6EXRXQC7FKCM97ZDFXGAWRUHZTGA3G8J77BUS1P3XBLU90A48BFLCBRYS0BTU9IT9ZQ0L98TH1JDSI7OO4MX53RQDL5FAQL4X88XWDKrrrr 7
2023-01-03 11:51:10,443 INFO:Message Generated From File /users/grad/ifath/amnis-data-sync/MFSTDataDir/515.txt
2023-01-03 11:51:10,443 INFO:      File has been sent ->  Topic: inputTopic; File ID: File: 8
2023-01-03 11:51:10,443 INFO:Topic-name: inputTopic; Message ID: 8; Message: K8YD5CTSPLMN3P0M5OQI5W6NHL68E3UDA1EKNVR5BAH569NFHTTENXTMW0DTKOG66E9XTNLAC0LR2AHCZVHJIGXD7WXMGGWK5L3BDJ1GNUNCEKASNTUXGEMPG9VNQE8NHWNARZ2HA4MEBG4DJQT5R7AZQDDT65CTMDJ5R3N7ZNIHSAUE18EZ2VRLX96IN7SKP1RFA530QF5FXCIQU8BD8LVDPXM0Z28H0IM70R13RJN1I705G76NDU1TWG56XKUG30R4H9GB9B24KTP16WMZ2ECTGCPPDS410LZ8N95LHDSFQ1ZSZQVGDYCH7WUDBV82ELERAG6O6X9VQLJ86ZQQDLPETOER12JAPA76X3S9QLQGA9FZ43GZ3SIUUO073DW89OQM4UZXW4UG3W57C7BVP1M2DSVAHW5NGB0WGTZ7YAIGLPQABIRPM199WVQSN7YZUMSNAPFWQ3G09A9WIZ5TCLUANJK2IHIPM6IVF96CFLECLT10EE2N53X6TVQ4ATI1UUW3AYEGAKAEYVX2AG62N6LLYCI9NBIGIHVZ4CHO35T3HUPDB47FM6JWJDTK9D1TAYKCK19NUBBM8IQDBYRES3YQAVGZ98XXP7LTU19RK09DN1YRJZE591BT9AX6OC1UQ97YBKIRTYPS9AUEWBRGJYHJ4YGY3M6CQ99I585AE243YYIZ7NAFVN5OVA80JN2AJ59VWD9T5EZKGSFTI2RL4M557YT2SIHSTPLN3I7A1PFGL8W4XRXZHZ68XYQM8DPF8LFLW8BHSUHK0YPYBU544PDQH16GYSMRHHDUDIC55RYWC9TK00AJCD3ZH0EOO3X797K4KEQWBEIY2MHB7BTUHAMDJR5MVLP876DOWL9UCKDOQZDM2AH4GSU3CYBBAL8B6TOWF7669VZWKY38NGME9WR51TG83AF6P4TWEL9YM5NZER39BYOU4QNZXX11MCSIANQDI4IM1G78YPIRS6TWMUN0KF2C12RXWN12HNUIIRRS43E3YG65A9BAH74JI8ANrrrr 8
2023-01-03 11:51:10,443 INFO:Message Generated From File /users/grad/ifath/amnis-data-sync/MFSTDataDir/462.txt
2023-01-03 11:51:10,444 INFO:      File has been sent ->  Topic: inputTopic; File ID: File: 9
2023-01-03 11:51:10,444 INFO:Topic-name: inputTopic; Message ID: 9; Message: 4IY6ZNQ5S2C9W4Z0QUMQX3UJ46YDDV8V26GDL3OPEQEVUIVY5ZWS9BJLXHTRK0A880JN8TMT0BQWVMUNWEM0PH6MZ0R7VPJSD2RPV8KR0E359BSR6HEPL5T47TJNG17OR559VW3A77TNTUD34Q5TA1XX2KIOOBN33IT6WCI0WA4UJC2Y4E2ADN1LYET1ORKJD4PPRQXP2KXAACSFBTLTQ57JAZROJ9BPWQDUKXPKJY3X577E33ZKNWH9LPQZNT0AE6F285BWZ9XDIC1U8MECS5MK8U0RR5WHSAOQ7QEQHG4QW1TT8RZGBCNKM2GH81GSWMW0NXW366A1XGXM9GN3ZS7RQ609JYR1WS6HA8EFEMZYXNV4HJC9AOU1XKN6JW4IU1QI144POP5489XFVFWZSS42LYXBL26ZI0DLYNUVXFKCDWCKG7156OCE1TK9HSKSGWH6B5FV4ZSWSDTJDC0BBBGS0R3CGIJUUMJCKJD13SMW6WYS77L8SHKDFY1IGXEWCNDRA4ZPHF8S3K100BV7ZIC5DSQZGU5USDPRP8KBI34RELUHOHERVM6Y2PP1XTEJTHIOO8CS4LHYKTJHX0V3MXJMNUOEH86BDIAM91I9YX5EIE4HRCPU9JXWSFMDBU6V1KR5J8S74P2IAH774W7ZFRK3F904NQGO2AL97KZ39MHN8RGIYW2AMYJLQ5R1TRMFUUPUPUA89XUD2FQMCJWLTOJT3ZA95D3R47K23SEGTFY7H9TGYBUE9PDITNCRVC0W5RRK7P6EC3O8OCZUEVSMPOUA1JPOMK0VEZIPJRYL2OYNI8DXY893JWTW45JQKEP2MSFE144UOSQUNS864EIDH0AK1R9I4OQKCBR985DN3M5UWZG4OTLOD3KCZK5E2JQ2XKGQHO0SJOC7RUW0592O2I9EUBP51TT73WWM7SVVWEVGEMW4NNEP8HMFZ8DLSJQHOFWRNR4N9IM1MQ1UU2TPCJ92J053Q3NCG3UXLHHXZUTJQRZYM04JI3QQTBOQAO4Hrrrr 9
2023-01-03 11:51:10,444 INFO:Message Generated From File /users/grad/ifath/amnis-data-sync/MFSTDataDir/21.txt
2023-01-03 11:51:10,444 INFO:      File has been sent ->  Topic: inputTopic; File ID: File: 10
2023-01-03 11:51:10,444 INFO:Topic-name: inputTopic; Message ID: 10; Message: HJ1BETX4AU4F4WRVLE96XRF5JQL7X5EYRHHUQZ5AGARCIHPSS3D14WU2M7M614R690WZNA6SPLEGVVSS9773W1RCTMQP7KHA4GA8BF3Q74X0KZJXVJ0JZCCL1M6YZSQS4IY9UXQN60Y0VKR29J6POI09YXT16LVFF1C5YJ8E0RTNZNVVHVIAE70XI38MCRW5ZGHWR49FOKWXE6IO7LXIAR42GRVQO5QX82LUM1D4TKJBQUR3ZT65CJ2Q2SX82NG6IRM11H9QTP3JX3FKI4PF3R8MYRXVJ3MMBI9A8VF4I0Z0H21PIMPLPYU5OZI96J3BOIEG9A1G1JCBOG1G6NPMI70A3Z0NV8RGIYWWKE4IZNEJ9EMZWFMU5P3JO8S8R754CZIR7IXA2SL0EDIJKULS44138ZCACVV2QKJHOFKYK5JZQ2JR6DABVJFGS7J0TSYGIS04SNS1VPNYJVZ3UE48UQPYK1NSUA86B2K4SMSMKU7FKZGNFK3T11628I68KMAWK4Z4T75NCMYJX61HNIAG4FJ9YV5KLY2LNK73JYYKOP47TE3BOGDH4TTN4Y977Z8WRRQI4GNT6RV8RKLTEHGDO5Q0CE1GW376M6R3TYLJWJ3XV6IUA3ZF6TWIJVELDSKIJCSWEQ83UKPZTWYPQ7O7H859RN3UQNX9MRZAU18ESPXSQOOJAG5L667N7SWX92QOY8ZDLJZWSYRPY3V9YAVZX1AC9BOPFMTDA4DGP96W97021FJRDHDAJ3R9B7Z42IZZO0T43H9Y8Z4XUILXQ6A727URMRMJGAU9LU0ZCJ7TN4JFA1CJQ8OX3BICL1N6Q3Y1H36SMJS1IFN82084RX8QRTX7I9EJYXQ5RHA8LFO7NCHWMUW1FWIMR01JPQXTDGW5PT8GY7TJPI8Q4KDC2M2GH6RZEHWO6KTWNC958Q6W0ERP7CSXBH5Y20M94BJ8L0G7R27SL95J6DXL4FNFVPGDE00O19SY9OT8WEP8AZ8Q9OPS633B1A677RVNZB5Q5ETLrrrr 10
2023-01-03 11:51:10,445 INFO:Message Generated From File /users/grad/ifath/amnis-data-sync/MFSTDataDir/28.txt
2023-01-03 11:51:10,445 INFO:      File has been sent ->  Topic: inputTopic; File ID: File: 11
2023-01-03 11:51:10,445 INFO:Topic-name: inputTopic; Message ID: 11; Message: 9VVHHQSYVU6UM7O208FD9GU0X2V0PLUZ4MIHI1H2UFDE00AXB55URKE4XW3BKLA7UWJFSZK5LIUWJBOYCXLBN0FAN425PJJLSEWJK7PNPOZCKC3UCUSGDO7T0EJC3KKJLK4C8G0E20C7XOBWEGG2V5XT76DCQ4I2V7JISHESQ2QEANPXLLVJSQKTR3K0YM3YMA6HZ5U14K01E8F3FODW44VBO71368J2Z6BNVN2PQ2NQCIMZJP8EP6K0NXWS8QN143KM16QMU1VTVJR5BZO07XHBYBS88HSHCX53UYY15LL19VCIWCZ89GB1GUFGWMVHEDIBJ0A7HEY5BY033ZWJ3ZSW6P9E97ZJZ0F3OZQWZL967QLJYOANGIYGKCXWGLJGBQ66QRE409JFPEQJTNLM23STJJ61MG9KZR0G6I4V8D0IBALFP68M3N9568EDNFGFNPUT34H5G8KORBJMA5CT45TEYQU0337O8VD819OOWFBB8L3M8JEPCTR4JTJCRMIAY9RUFPMALGPOKAO7C5CANJ3WYAEXOQ4CKG19IEGNQ2ZL4R3OJSEWFFC5C5MYQIPXSY2GRFTJZWYEQLP7KS861B28IJ03HLJ8T57THUPX3J9X2RL8NSR1I9V0M5H4KFAAP9K1XKOB15XSQR2P07NO7KWFKB1E4MODI97FXHE2Y6APHTVPP6EUJQXSRB672QCAR79DZUWTHD0R65V9W3PAO1TGY02FI11VEVDGQ99GNYLED9ULPGIS9UVMP8NP3VWJH8P3TQL1I679VEARE8J1G9KOK2561P2IE3TR2Y63R45J3F4AKWZDRHU28CG75Q3AZAZXYZDWPQS2V0WRVNOKEOC5F0MCADN5GJYL2QTDLF34PATCVB48D5QK4VXET4AC7P77BJ4W1CNB0YLIF7UR8GND5AQQS30Y4OUHDA9X0OUMG8V6NL4TOPKLF4JFQ3X2VVLHRGAYFLPBNOEY2DHXOYBR3WFUEP1KA0MOCWE7V8C5BMHLC83FCYAI5IQK73DNrrrr 11
2023-01-03 11:51:10,445 INFO:Message Generated From File /users/grad/ifath/amnis-data-sync/MFSTDataDir/196.txt
2023-01-03 11:51:10,445 INFO:      File has been sent ->  Topic: inputTopic; File ID: File: 12
2023-01-03 11:51:10,445 INFO:Topic-name: inputTopic; Message ID: 12; Message: GSXNKOEWFW4HT7YQ3L8YQWTT2811XHLGQE8728JRFH8VTZJ46FRXNPXFCQABTYDKXRQQ13JZ3BX9DO523CXAFSOB05QKW0K2LT3TM8NWN3S5PO9M26899P2DHFUH8XRD88YGNXOF784JOL51X14GAIEJH837TIAGYUDDPJ9MYADKJO3MTHXU88J1WOIOKU5KFVWK4Q20RBA3J7KVNZEHC2PNTJFH5G5A6M8DY4BZCKFTN1AJB23FV0EY4FIE8HC1YL9DJQXSHFESKFIXR2CI7JZZZRGUL9I8Y910ZPH6BGQ8OJXJMCMT2K30L7OWL7D6K7DYS6KXJECF2GBTT7KAG4K2YG2ZC97DCTG0EKO71UUDRLTV9TPGYS2BC7J9DRPZMH3054IPYBEU3WGAD03P5LWE9K717Y2XHSWV9OJ5X3JN1QYM8EZYP6UGI7SYXYHWVVWU3EWFS4ZH9837AH6O1CH6NMCJTVIKJESB4VPYNDS9YIHVG2OLB2RZQAL734Y2NXXNBLPHNSYIG2KAJVJELMPN9NM34R7VHI2K6JIEJC8T6FAY0XXIVD5PVWISKZC9MHREGV6F2TDE2G70UT9EN2MBSGCFQFLDZOHA6Y0WJFCXP8ESPSWNDIMSAULAOJKRX700BNJD3YL636KWLHDO5AQMZFJMNLHOFLWYVU47QBH59X25QGKLHL9D6WAFDL8YINH7OYFI6U4BUJS7I5VUWMVAHA9I1EO7KA8L4T3G447IJPAT1YD474RC0WNM4E7XFAXJ7L9VVM48IY1BBUIY5VNMINMTFK7SU5MUWC6LL7SCLWQIMUYGW0AH9T7VA5ULOBCHV2EYV16ZY1CC8WQPA70ESU2MSI12OWO6EDC0II3KNRRJFNZWIDFA2FA5KBMB95FOEOKKYKNAIJZ3X8EOKIJ4ZNVLQR65DBQULYH80HIHDNZUBMNSU7ZXD3K7WTRWLLJNXTOF38DLEHCTTYGWBN9285SUFVG9SI5WD7CP38OF31RPWXVX4OPNYNQ58LNTrrrr 12
2023-01-03 11:51:10,446 INFO:Message Generated From File /users/grad/ifath/amnis-data-sync/MFSTDataDir/643.txt
2023-01-03 11:51:10,446 INFO:      File has been sent ->  Topic: inputTopic; File ID: File: 13
2023-01-03 11:51:10,446 INFO:Topic-name: inputTopic; Message ID: 13; Message: 9A031OUMTPK8SS257HT39QS0WC0K8SEXIQXUKBEJEBCII73OEHA9W4XEK2R2UOIMM9YQNG0VNREK0P5W1HGUNZFK8GDSNES1V9F7U9WGHT12HCYC0WDZIBQ21EEEAWYT9QA831Z8033VTBGBUPH80WNN2VLPJ2ECSB44NTSJJHFD3VIRC5AIX5Z56XBLYN8ATXCAJQPPIGEG1PRZZ484STJ4QWFCYH98IBWOJWAO54LMKTJOO4QU3DQ5Y54ECTYAS9XOU4VOENKS8LJ11N0SO0772SG1X5QLFSDYP33X1KFG8ZQ0SNYO56FNGLP6U9IYT1F0MHG94E6E6AV5A6T7CEDQSVKJNKIHTYCKU7CIP8KEEJ7FLLXCRMJ5EZNABVR845965MGOMID6B5Q8PR65WVXFRM9TI8VULTGTA8M0UVGAUBKC1D2CYLPARH6BHRJQKTD4TAEANRLTWNKMXXUEICEKR1LIVDFQAU7CQ8QUUEMNDWI1Z6DEAQP0WIFHJNJ01W3L3XYGAA3TQWET1F4FXMLOK9HRWVZCANS5M199EX1U5BXJEMQK1PYKQC5OUJBJIBGI22U8Z1QR4CEEGY0OWLYHFSMURGTWHGTULXFZMXGXH5LT5OANZWE3MY0WTRHIQUU0DM2J5CF8F9JH6GJSJU04FKTSQRL4B5VUDFSJ5TSAG9L9PH4OLDDWVJ1LYUC0B9EFNGT8IY0AT1IBIBLF29OUB0J3X6M5A2NFYHLNIMOX655FWK7ZSDUCTINA7WUTUVD4BRM94FC0MW8R15WMLOBZAF5769TNMJH1AV9RR2DAGCI8JKGUL2JB5HRGH3BWKEVS51R5KKMNUFPUP0DLO81QHKMQNERMVUGW8Q2ZEH4ZGRMAXGLJ5R5MB8I2ZOJR80P2BU3XD0QEVIX13SKEHPHWZT5HJ43ZIYNJFF46I9T53FVYG570M7WN04FJ979CTCI7AMKJHTF8BIOOW7H2E35KYB6NLQABA0SCYB4JT4T0D87UEOZZT9WLTTTLIJD5rrrr 13
2023-01-03 11:51:10,446 INFO:Message Generated From File /users/grad/ifath/amnis-data-sync/MFSTDataDir/859.txt
2023-01-03 11:51:10,446 INFO:      File has been sent ->  Topic: inputTopic; File ID: File: 14
2023-01-03 11:51:10,446 INFO:Topic-name: inputTopic; Message ID: 14; Message: PDG92DSFZZ1MPALTFG6MJSCFL5LL16M3RTPTN8IOZEXKOOM5RA8GCLIPZYU0MH6SN8BRJJQ8A2N2FW5Z2KMXZ02L9BZM101KLXHVJV7RK798E7RMP5GU7M7SP0U6UWYRVF07FLV4OKR0B21K4HBU0BYW0TEYTZVJRBI1F1YM4Z9L81D0T4Y8ILF8EYYHQ1AVHB7S05MNXJTZOULO9TNF7DPA12ZR6EWVNOTKZEIKNDH443XTURIV61SYGVRZGOP0GJKMPN5APH5RBOJCR01OPQ7J8X8X8O04M4NIKCUCMOC59TI2K7TKAJVZA8W0ADO9ULYEOCQZ9MVTB8HWN3CF2RN4T4VAN3990VCJW18TIHBJUCWAJWO8VLCZ189OHSMCJDL5L6PB5LVLMRHPLWQSGAF1I1TZIC77XPL9SYHRFBGW5ZLINSAA56USX54OTKC1LCF5PT60R11M3YVPO9NXSBRJWDKDGHIDG8GZNR2D58X2V7922IJEU1542JBFT7GS9DL72JGXKC24JGW5J0HIZN7ZALCEHYAZKT3S1XHPWMLW9ZCL78C9AG24YOFQWU3WQ93XGH4LLKXAS06P8SKVMXY2J7M3EHPLTXWZ02XEARWHMJ9I9CNR0H3AOJEJ8Q5S9V9G81OQLWVYKOTOKKVZ2HQSANA42KT80ST831PPK1B6YF4Y08UCLEV8LCO5PIW6DKCHLV5RCIC47NHK3UV7DA2FHRLNX4EXWOMWEIPH66GJXBAJVGKY20IH7C0QVVQZCKT2WVATGFDPO1JJZS75EVEVZPAYDP2QLAQUDS43MBLRDS995FTEHFJ4PRSLBWAWN5MRTOZAGZ7NBRNITLCOGK1VTT7TQP95DFMGWC6IO4YP76ZSPNRKI96QIP8FXPWU9JRRGCO3ZIEEGH51P6V8GST9JH5ISSQ3BZECIWC1DQ2O9EY8GHYJDJRD05R22IUFTD9K838GJWN2NALS9AHNDRU0MZOMZ7PAKDKLSAT490SM27433CQJXH10M1M9WCOIrrrr 14
2023-01-03 11:51:10,446 INFO:Message Generated From File /users/grad/ifath/amnis-data-sync/MFSTDataDir/426.txt
2023-01-03 11:51:10,446 INFO:      File has been sent ->  Topic: inputTopic; File ID: File: 15
2023-01-03 11:51:10,446 INFO:Topic-name: inputTopic; Message ID: 15; Message: FT9S840EO9XSCMCRMB0W9OOXAZN17TXI31BMEDDYB38Q2B3TGMOONT9C3BV1XY30A582TYU7ELH641HZSNQJAY3AFD6N1LCKHI7HR05JK0YM8TAFVLHQB0V9L1APXANJYNDABTS913XALFWIL2WC74CY87RBCHHTEZSD931RV49F5F4O533ENF9UBX1GKJQQRZ4ST9TJ88LYMHBI0IFRU6DDAU0NNDR3XIHNX71CAKVZTTZNMEA28KADLKQ5BP1RYI1L0KACYU3R70HYAJ50C088UXE9DE48FHW3ZYWJL5XWMKJQNXQCE5M8JPK3OW4F8LV0JCTNQ25ZAVZKJVH14SSL89B3H8E1HSYVPPNYQ875D0IVKCXAKBW1LJG8OWRDEUD20000A5F0OWPRYD2SUSZ2UWOEMK95DRD4R061HIE9U58ABSKT8Y8YDQCFE9KFSY49OGKPNMJW4WKJJJGRWSBXOGGQOY52B6LGFFE7CZEU1YQ73WRNA1DEVD32MV37R7QJI9AEFWP6I0IU2TPJ3EOS3933V2TLZ96TAZAKX4P4C4UC47E2F0UOY530AN6WNLBNM8XTRL8BU1I84V4FXW9V0V5UJFU9WZU8VMZK06ZE8RZHOZXVV0S3095WH9BLRR5QPRYIUUO9MTVRMFQPB2XJXQ1QZNWRLKQEZIUUMOYWG7GHBF4BDF5EO8OMERPCYM5BN1XOSBDBZ5V675JW62MWIM4T5YAIHR3MIMKEMK1JHR2WUUDRIO0IDIJSZ3Q957KZ5BO1AZICGPNO3UIHY5OB8GKKZC08G7SUVIB1EY4PJ07BFLRAW8Z3IP91A8Y75BXZ2J7RNKG34BJOT2H8RYOI98RZDXLDS92F6UFNAGDBUFCNKRLTRHF2BFBJRDGOFN2VW1W0LEQWYVIQ0B8QJHF3QPPD44H7L6TOT2K04DUKFY0RPBD42AFLJQLAPWLY1T6DUC2XURSRAWFME50J1EFF9UIOUOZAGVU4XXT2KUK4JDGEOH608X325QXTGCKGrrrr 15
2023-01-03 11:51:10,446 INFO:Message Generated From File /users/grad/ifath/amnis-data-sync/MFSTDataDir/770.txt
2023-01-03 11:51:10,447 INFO:      File has been sent ->  Topic: inputTopic; File ID: File: 16
2023-01-03 11:51:10,447 INFO:Topic-name: inputTopic; Message ID: 16; Message: KPKAAZ4ETR4LS5D37S8XPCCJQ92KUTNB8PXZIE37CXC9NDSYP056UWROW7USKDSHA9C1GKJ3S4MCGPXSEM4NWYFW82AGTZSAVYI676BMHHKK31T8W1PNTK77Q1KJ2H2UNMT507OXZCA3T4CQFNIDSZA9F3OGGEYYV8PHLRBVPW1G1TPOS3J19VHHNQQDVFB2I5EYWY5Z2LEA7WV11C16Q9DJ4CDAMAJRIINYQ6HUXFL8CQS8IWUEPUU9354DAD0KWJPSJFINXB07XTX3P2ORDHFR9QW04Z3FY4ZFQITP71SXTJGAY4IKLGX2QX03JO05VYP9MZ1P0TTU04IY5IS1O8RZD6SGRTO42ON3PZBBSMKRCGZ73GG7CHMBLAL0BYA873E170QJ4SAEYPFW8UHS14FX52237LZN2BG6Y24I1T0IM9E0Z0PIBWA1KE5AXXPA1TIRB6VMJYUV2QX2WWDBVESCPOPOZQUX0673XH957HTMA3FRTJFY89RJ2BV4D7GN0B9MKIZODENNV5OM1DMHTBQYXJME8R3E72TU5ZVX4GGJM4UWAIDBT32XTTC553946VKJ3GVGSLTQ81483X9PKS8FY2RZWM75HJV7SOT39T1609A5Y0V3VXHOGVG010V0M056U6QOBQB6NKY0VW073NJ3UP657ZCMCEWG5J24U5J0HM6J94HHYZRD9Q4ITZEIWD2BROKNR5X40XV5ATJ3T8HFJPJIQV49L6TDJZBCMMM1P48GKRXIKPV7Z6J7QLQ5ZMBLOJNUJ2BPHU15TKYUWB63OJZHIQLS2HJVUQPWEDJRL8BSO0PIRMZS9FJ9VBBZNHG7KJOAPSRW30ECJ85CBO7PXO4AYR6HS98SRG96C4LSUKT8QO2WJAZ1EL2OFIRZZ8CF693I2YFYTNS5H5GOF32BZYAQ4PUPC73AIRSLLCOPFF0F9I0ESHGZ5SJTWQ34B7D76UAZXSQLKWAZHT05TJFAVL8IX74ADTL3HCIB1IFHHMJUK1J29OVLP2SES2ODrrrr 16
2023-01-03 11:51:10,447 INFO:Message Generated From File /users/grad/ifath/amnis-data-sync/MFSTDataDir/541.txt
2023-01-03 11:51:10,447 INFO:      File has been sent ->  Topic: inputTopic; File ID: File: 17
2023-01-03 11:51:10,447 INFO:Topic-name: inputTopic; Message ID: 17; Message: ZV3LOSI36MISTG7SZR5UZVQ6CJ1US7EL2EOAJ8GSDN3AT9KBGNMFX4WJH5ID1UGSS0J59YXDNH7O9KPMHGVVDA995NZJ2TRDPR4YRX0CCW7GSGWF8TVTXOINNUR02G0HKJ8MJMCQVMTWZ07OQ8T8X2Q81HOTGK266VOYPM95LTOOW0UK8SXGAEZN1F7MMH2ISOQTBT5BKZ9CA909IG5Z64MV9MX2WVPGXJQUCOPHACSWKR56SXUDPTII1QFECU4RLO5RJM3JGWHNEE2HSBHSUOVHE86MIZRABUTOJF12D480LZI1K4H1UYNBHG44CCHBS5QBJJITTP53ZQX20ILXM4LG9VTWJB2XQ8ZCY1AFJMOEGXGTUY3826RZES8Z19Y99WAUJFAOGPIJXANZ9B4TQ0BSB4UMTSC7K3C2HNRVJDJOIU2E88130JNQK83PHNOEGWBOTLWQAC6IFM5C5MZDILTHTM7Z5EZUM078YZBGTE8BXFORWA7DN6XG3T6WVU0ZZ6D49BWEZRQ64Z0FF1IHG60B20CUQPE45UG78MQZBZUVUIG3X2TDM6W6AGQVX5YM7GONGZFDSQ2YWWZWO4NXCH3I2Y5RACM7BY2XUZDJWTVMK08RC3F425R142POZQJF1K9O36NEOVGP0I2TZHP3P7Q1OQ7B4109VICFAD79CZ53ZY7IJ5CL228NO18M2A8CO4TW6HD6ZW8A566YVVLUXWRMEBOSTCD86DI6GBEO3SMA99TIV4J9VD8Y7DJ5425MOSJ66Q1NXCEIICDBOL8RYB907ILFX54C6CNDBN9VIL5FUS7SGFC2URDZSM8LRXXFYQXCKP1LZFIAQBQ4BEJ0YEMKZILAFQRWKHUJMRT58IKKNNYIOJ8NVSEP5UX750Q6YUG15SPYO2M9SOUMKJRQ0B66YZMIX9DKGYEJTI8GS7G4URW4UOB6KZKLUD420VAEDU3CHR69X7VD8OT7CSYDNRLKUKB0V2CRQT0OKKQ5I6K6COPK85Y9P20SPAKP1F7Srrrr 17
2023-01-03 11:51:10,447 INFO:Message Generated From File /users/grad/ifath/amnis-data-sync/MFSTDataDir/887.txt
2023-01-03 11:51:10,447 INFO:      File has been sent ->  Topic: inputTopic; File ID: File: 18
2023-01-03 11:51:10,447 INFO:Topic-name: inputTopic; Message ID: 18; Message: YFJNWQ7R4HLU33RQUWQ8TQA5N4EK1WCVECTBV95X1MBOI3AVF9HT6B2OSCEW8RA5GJG0PPQ26J2CJSFH0RRHYPDPC7XXQO4F7R98S5J6T9IDJMQKPODFEHSZKJRCA34K0654I1EXX48DN4D01KX0M7KPST7QADLAW71W3OEYDSNKA1DK1KLGPG70CII42GZK0LXB7QNHW1I7VRANQJUYFAGLSY1YMRHRL5GMAZPLAZ2W0B5RO6G8FOJDGPM3SSALG291POJIUIDIWOG6N72J8GBP2AWX11NPI3P4Y27NULBOE66XLYFT7CSQGF7KQRPN5QKIO5KL3AN4YAGDYJEG8QKCML3GZ5UJQASULI9SZ8OZ95ACO50Z3T4FZ58FSU6SQG8YWRDEK728Z1JZCS1A4FE2OGJSB531KK07F7NAV29E1LW7J732PMNS2AONP4QNBCILMNP28YIPJB8K44MJ8N0EFH4WQMDHM8EUJMA3HL9NCSSLCXPZ4YBZCI5DNECMT15W951D01JGEL5I81HU2CK49H55RSSEGOZIMNWLACZAW1SESKRCB1EVIOT66G8MFW5ORIGBMG94713AA7AZZ4NSO0FY5JF5EX4YJRMMJIDX3XPIT3C28DBBI7I1B1HOABM6O1OP05YG1HMSYN6TBL0NT7YAZIJZTUNHZQEBHT0IGVOV43K94R48N2O96DHXQR0T33BVL2BP2KA4WN6PK61NKB9EMQSQHULHBVQMRN6JK9B5TQBI1YRC4HRJSJA31M6UBNC890E1JLVUF480YZSQA5T3JO1AM34DKH8QY2ZO3Y8A136WNCLZ3A92N1U9JXMZFNBBP7JLTGP3357OJ28IPFNP2U7YDZFQMC9ML4O19EJ270M3CTBOSOAUPR4RPH0Z9G6VOC21LE82NGU3I6J4ZXB26P5ADAEM63L9DL1MWN25DWKBYULKAWTX40R35MTXQ3M9R98CJIIP53FTDC3PQJQT8B944XD6RJR4GS3OTNU91RQWJ2AUJRXM4CPSrrrr 18
2023-01-03 11:51:10,448 INFO:Message Generated From File /users/grad/ifath/amnis-data-sync/MFSTDataDir/833.txt
2023-01-03 11:51:10,448 INFO:      File has been sent ->  Topic: inputTopic; File ID: File: 19
2023-01-03 11:51:10,448 INFO:Topic-name: inputTopic; Message ID: 19; Message: 74ML8X69ZW0RVAWM2LTXCSH4W1PCVGMVH6KMQ0UFE99UJ12SM2ZBOMGG9ZTR1TV36X0OXCLV0BIEUIFVLNJX7MV958CS2GT29SGSFTE5S3E8J7JYRT6TN1UK9XVUPAR6SDKTC1SSRUWUC4HKYXOGC58OLATV8HCUAE0A2SEK1LBJDA59B3K6LYENUYPVFOLXPULOHRTSOEUPLF5BOQ9OKQIFDQJFX9SZ6SY7H3HUQXT38M94SKVZH2L47XKWQKE6I2O495B26LIS7R30N8A2B3JJQ8M2LEJ0WO7GA6F7XZ0VWFIRMPG7Y43CKYSWL2MPN6MLWZ33O04DCUR9VI3IF449ZMMN04VSMHQEQYT3NNSKC2R32LMZ9N4O5KC0TI9PMGTC7DJI8O48BCBB05KOWABTRVKBFM0SF2O0ZHD1CW7HG2Z18NRPI0TX9ODM6O2ILGHF8EPTD60KTOHD0MXMBQZI5M3DI7JGAH7JR1JJCH489MUN6UECCPIWUN0EON8OBBF19V7BL2A9GUB3ZCU0NL5970MR8QKPMCN85A1TDOQXQ23X1RYKJRQYN361WGYGC3IV2CLX6OHM45TV61HQKSTCFSOKULMBMARRXPHKL6BCPT96Q8A2CJL9ZNB98ZR23OL1HQBEWAI6O9XLGJB6FNS5YEOAS719J52W7CALMJ7N0MU705PAJTXZRQK9O004BLQ4M22RRRQOUTTXZJOKBLQIUBSU42XPBTOB8Q2HV1K3DED8F7HRTVZELW5ZYQ5U3E6PVS5F0YEZN4UXDF94CC6TQHIT2BI7Z1WSUWNM102WNYQSKIPJCTLZ4ALZ0F5UZIBTJT7UBE32658RVUD5MWXB6BCP9YEJ7AADQ5SI83O1DT3EBA5NVCGX38VJ8XQ4JQGFI0HDCIFTX3P7JXUZH9SAPG6IOKDTO5A6HCQRF2QM6OFXSQ8LWXDGPBYD4Q1RM814IG3HLDTNEZPBP6WZTD18SFI07NX400AE81VNA63YDY0ZTRU8MNFVTUCYKKTBrrrr 19
2023-01-03 11:51:10,448 INFO:Message Generated From File /users/grad/ifath/amnis-data-sync/MFSTDataDir/76.txt
2023-01-03 11:51:10,448 INFO:      File has been sent ->  Topic: inputTopic; File ID: File: 20
2023-01-03 11:51:10,448 INFO:Topic-name: inputTopic; Message ID: 20; Message: KW56QARFCLUVJNP7U4ML3CF4IGH7EV06QVW3SXCID0A2GOW83HW24WGMHXZAI10EYIOMBECKZMI8HZBUYFCWSJQ6QV8WHL2VZE8MF8L5CGAL8FFXURMKZ4Q7RPOYC3Z8D6U6IKS923NOGG6FRY35USP80B0FW65A6SELF9KL4YA4VYLBUMVZ8IHGVANSZ0L0GC0PT1VQWYMGUOUJ8ON6280VU89ZMY8VZVZYUZ2CLPEC3CP625J7B3NS9ZT4XMJ3E5OY1LLECZP9AVVAPX07K2HTBCAL8NVGF6W1BZOADWCRUIEWKDMTRD26T2P7E5IE06DWLR3F7KW7O4JHXXZLWU7SRR1I2EFFCMQ6ENCTLRN8TYDTCIEXXEAIHKV3T5VHSRIM5CQ5ZP636AM8H5QWQCRLW29ZRJ5QXFMSFFTHM2NCK12SCUN78Y236N7A2ILP9W4QQ5Q0R8UTQ6KA269YKFJUP66WX5VONGL4B4FWJ67YF4UTKKTTD9XO8KEWA9KZZEQ3TF8PJN5HTTIF4QE9XY8EQNBPUH62DUFR9DRPQXRWVO60ZU4C3ND6CSM9H5Q0KGWRCCENNZYKZ77ZGAMM9BN5Z07E9K86S52VA055GITZXNNM21RHYO783CZWIN2JC6YKLN9SOGCEOZFSIQ1RPKK0NDA7Q3897AAV9P4ATFYQMMA8Z403B7RWDB4521RL9FK2P2OJKDKUSX9J6L307YECTYFUXSQB5N4CSDB637WWO2P0NI860V7CHLUHKNUNNMRVV4Q68871XCS6S4UOABXO770LBHCTJ78B7D2YZJERRVP0TBQHI9U9XMB9E3W5CZBLUXOPXEVS30VUTX2XRCSV8JPTZPSV9WY4XR6IZJOC52KCUPQIV31YJL4D9GEA0VNONVZREJGK6P5VBQFD2C7FDJQKXYL6ZQMODFW4ZL5HVKZT7TZK52QL8QVA22MLVWCR135NO0S2V8TQ37PEM9GE8AHF6PTQ5S8JGQ9B4ZT7IC8FAU8MMK0LUVM43KXArrrr 20
2023-01-03 11:51:10,448 INFO:Message Generated From File /users/grad/ifath/amnis-data-sync/MFSTDataDir/309.txt
2023-01-03 11:51:10,448 INFO:      File has been sent ->  Topic: inputTopic; File ID: File: 21
2023-01-03 11:51:10,448 INFO:Topic-name: inputTopic; Message ID: 21; Message: Q4YCBS70B0IRWGY5O7QT2KGO7KOOF4DMRFVT8PI18ELB968TUW2VZA5RGX65ME7WGTYBR5ETSM575XQT406QTMSXDI6KVV25YEGN8HSSS4EO4D87LFI8JH1HK1O7Q03VEFMFWWITJZBFXCOHMJO3VZO6U922I9CJTUT1WX9S1IW8TLT3G9W2L9LFOTCV596AAOO8QFRY9YG31CZ3IH84LHGFXBKAGPOZVSUWUD3T077KJ98D42JIA1F8NSMB39O9T06A4KHLP9S9QGFFFUH46WG2J2CO0O1M3SD2X39Y83OAR7OVNR3J8IO7YEJWRW86QIYICDDLDGFBC7CS3XV4Q3SI37G0BE0LZ08NH33OU350APDKUIV8MXVXX62968O2V2QUN96V5Z8AKMC02GHUU86GKC38JJ5N6WWN0GI6X6LJOJLD18HVBMX97YD7ZV5CJVREAOOX3BNPP4DTBYD0U5TN4TVVAS9ZLIN8V2KSZE339XMPOL5KSC6GWEZBHCEUT72XBSVR1NGJKYWVYOG2UOS9NGX0HZ1W12RJQ5K6VMX3AGLUDX0TIQ4Z7T5OAIDOY55P8F87LS2LR4H9AZNIPIGQTF26ELID4JN16IPT337WVAKQGQA7WCN1RUISQQBPPV2NZ86MA0GMM7W2BZJYLBL3X76UI62D635Y373ZZ8KC65F2AYUYU058M3QMJ6ZJA9OXMKZ95X5FS4J97XJYJC5G7F521UTMQSD65137KU2DMLEDG9UUSWJTJ22NYUZE7SQ5I5R4RGVB1HRKNTJY9TVV6C6EAQMOIZ72US6GIH0BKDE2XUYUAHR6RYI63O35WTEZ6JKO9RKGSZ5UVRRDJ9GJGWLJ9SVB02ILFSR8NELZTVLZYDX768FAQKSMWQ5Q1S8ZI45UNANTFQOX3H07S7O95MZ0W9QR2204XJ8K8TURCT3CRGPNAMKET4XS4HGGONGVRGSP283BHVXAJW39019AB8CGI0KDD45PW24KA1X9D7ZL9YCDSLKGLO5UXFGQrrrr 21
2023-01-03 11:51:10,448 INFO:Message Generated From File /users/grad/ifath/amnis-data-sync/MFSTDataDir/313.txt
2023-01-03 11:51:10,448 INFO:      File has been sent ->  Topic: inputTopic; File ID: File: 22
2023-01-03 11:51:10,448 INFO:Topic-name: inputTopic; Message ID: 22; Message: DKZ7F01ZM9AXBBOO0MMDK3R96YXIP504XMCI0C9M8NG1WUR7W1YM7GO601IHWO5A5NXMBWC5SSDRAQGXQX6D5I3YFAT0RTVCKSMKWSCOSAG74RKPO9WAB7VCPC012BY4Q14MXPF8ZSIDX6FP2GKKPASFOUW0AKCIYGEE5NEM43LRXU28G2ZYLRDPC7XDFG8NB1Z9Q89V95JOH04AGJCMT3Q2ZLQSP0SKRN1LS4P01MQMVEMCQHEIA3ABFSSC9GNDC7ZAL5R2LBFUOK52RR7QVQ9JF0TONWVXMRRFFJ1BJR533IF101CZPQIGG54886TR8CR1WNL4XHAOR0NHRQCQ1F0ME6VG6WA5OJFIW4I2G8Z6LG7D3EADCR7QJ6548P28CH4K2HSTW1PXYQC1ZM7O1XV7TXU0IWNDSYWSP7J61BSRKHD1CO886AI5GE14D3S300IZO3YUR0YU2J7JBWRIV09NKO5OINPG7RSU774E02TZ7T7Q29VU0FXDQP908CS7N5Z4GCZ7JONZE28M2Y88ZSFBEF6WPZQ8JXAX57AZ54ZQ45EGUPVTA2K8WC220SLOO6HLZPAMUP38HA506HT8PAT6M8087RCSBL2Y1TGSXVVJ7S0AMNIXPXREU07JJBA7PVGO2F21FHVORSWLVG373W8X9FV98DJLTWX76ZO3ELAY28RBDVE9RTX431RXTS7Y3RM9QTAN6FOCAUR1B2HYCH0SUMW7Q2J56G44J9NMC6LYOBSFK824H7XKGUV4H2AKY28CKTOYSC01C4OEBNMIM2ONDV2F4ZMDRXZ1J24Z0B4SLS44N5WW2PXFWIGNECFP80ZEVSW42N4JVHX14830J4O6K8RJJIC571QA1EE8KAIS1Y2M43U7AF04NJPZBY242AIQF5SVAJYFD5PXW6VGJKVL538IJVIB8XVM5XK0NZPOMY26O1VQPXT0JXDB119469LGFI78DI8CXHV1TULW17ZUJ7HEJUGH0F1WOH74YHDY1KHT2GE3YN3YCXHH1UJSrrrr 22
2023-01-03 11:51:10,448 INFO:Message Generated From File /users/grad/ifath/amnis-data-sync/MFSTDataDir/608.txt
2023-01-03 11:51:10,449 INFO:      File has been sent ->  Topic: inputTopic; File ID: File: 23
2023-01-03 11:51:10,449 INFO:Topic-name: inputTopic; Message ID: 23; Message: J8Q8ZK1IAXWL30WGL12MS5ED6X6PVXGSWCN0K9HMTVQSE8UTBD059DBJSY0MZ23WWB2FURMC5FQY4Q9TEQRYJHNYAK0GKP98K590ZG15VWBEA2QVNP3WT3Q72F0QIK8R8E81BJKX9MGOOJ28REEZ5LSI1VQYLIU2B5RZIVUGI3PHT2DY8JYIXC1JV7VTP5YAT58D663LRHZMBP9MRPDU6YH5DMUK6AKI0FN4TTFV765BYFXO51C1ANJA2HX8MBWXCTCPI0K4EJTS8DESCSU5F3W8ZQIPH1LU7FS56DGJ6LGI5WJFGU439H5DF0R3ANEDDR34U18M7L78MY4971ADWJ6E2F2M4TWQ9PM415N1K4LXGKM0UMI7KISYWIR52ZDWCYDD84ETW5OKJH3VR6UDQCR1XD4N4MK4HKDCGIAANCDTJKGNNCNLNW88AOKJUJOY3QDLR2XFBB51TYEYIXMJ7E9EEQR0F389ERECD3OVYGG22PDNP90056RN4PSCO7MM4LCVBA0PMUR1LJMUQLSE6GZ9YEWWF0AATJFFYX41C4DG1QG65V0GHTSYGA6WIP0JH4Z6C87X1NK1QIGJAGM254KH2THOKW1XI30XHWADAFV7S20DPXCG3FSU5SENU3Z0623P435XF2NGWDHDX2VN060JISIL6POL8NLOD46IN9D1TKW589C06DYIB6NGQCK7BISWTSY7UQ3F59PQ4LX0S9NPVUBVATI293ZJNRGFGB3INHMNLZPHX05MSADZ9QN0VBBXXMK9A2IR3FQLKERR34U2RXGUOLE7BQRPCC7KKD77SW3N1T66MES8PRFX2MXD8WR6P6V29ZS4OQL05NR24NZIT1M63U0X43F12Q5CVKWS98DXJG40XRMQIUJSF0VQGWQT8FB0ET67HWG2O2ZK94HYVFY2MZV5S7GYXS5E9Z9CBRXS4JGC3SASHUADSCYJLNVBN2BGN3LSZY78PUD4ZJQL984QODE3HYXQSX8VARFLRKXH7UL5IA43S7BN82KJrrrr 23
2023-01-03 11:51:10,449 INFO:Message Generated From File /users/grad/ifath/amnis-data-sync/MFSTDataDir/499.txt
2023-01-03 11:51:10,449 INFO:      File has been sent ->  Topic: inputTopic; File ID: File: 24
2023-01-03 11:51:10,449 INFO:Topic-name: inputTopic; Message ID: 24; Message: 2B1QGYX7S11946HZQ840SKRBJ2D40QWR7VK932DJSW8J4B83ZWHE8AFWDOCVBEL5JHVU2Y8N5PWGJI513LAATAWIB4LNVB13C8MIA4P57AGL00ZRCN8GAM2J0YAFCD85LSENNX7R8Z1OKUDGK7WQSWRLYSH4LEWDORKUC46UCQLEH7ZC5UWMOHMTKT0HPOJ9TFC90NZO5I97SCAI9AVTZIV93QL6VRA1F1LWHRFR7EYDCUORLSF8P1RCP9IC0EF9VFOWIJCQULF7K2430S5J2PYI1717NF1ZHIKGUOWRJQNBPY0XBQQ6P7LWVRSNCA6P2VF3LIL40G8ICLDSP5VWZ0RPG70GANU5FVHZD3AU8MFB2RJK2OEKPD9RP3OZPNRP8GPMCFIBW3TJWMUSIK6EPFNNKYC3M314XNHB34ULWK9BKR8L5DFTUNUQ0Q7Q44ZBTMYHM5LD1KAEHLL82BL2GFQ3L428QACVYGKUJP2C9VG5RQIDUCR7UDRNGTRM46OK5PUNQ23RULYLKTRS0LENDEUMLD8WV8JMXW645BFSOS5D17KINTRHH43J8PCQ2NNXE8I4E3FY4KBQB7SFSZ9BLEIZY9VQXJ678WFJN9X0L98I9MKQLWKRGOWGA1XGJ1NW0DVO9PRJNHNEN2VKG9LBAFH0IY85JCWXSN047V3MZTR6HDZQS5GD666LE0VR9ZEB11W7CUZ603TQSLCDUJKJLJFBBOMJVPJXPBVOTO6U7A7BUJD080S89OYNW5S7W86VSANZ9T0T31W9DTOYP45SR675EBZ82M95WAR1C2C2DOVLJL3WYQBMAY6HUBPNE3KPQD6PW152BU0NFNC6A4EAUEEP3N1O00JWM1LCF0T7AM7FXIGL6IM0RMYDU178TBMC2NHJ83DLU71T6GDF1N2XEZC4HZA60PHFYDYJ8894Q5Y7VWTITP1Q46EAVSI2DSG9QXJZ1X457XJVBYHLS3B4GXSXENWU0KHWTY5FW8SWM1AEQZ656M1A60T49Q1K1OU1rrrr 24
2023-01-03 11:51:10,449 INFO:Message Generated From File /users/grad/ifath/amnis-data-sync/MFSTDataDir/662.txt
2023-01-03 11:51:10,449 INFO:      File has been sent ->  Topic: inputTopic; File ID: File: 25
2023-01-03 11:51:10,449 INFO:Topic-name: inputTopic; Message ID: 25; Message: 745AKO5E7PD1QF02DR45GR4K91GT3YP1S76EP7Z0SS5PCQ3FBN9VW5Q25UWH0Y5Y27U7NKHPC33JRDELVGGI5REIPVR0UUABK6W1YCT26FDN4WDL73FMWNH5FNHBLSPS7EQ37EKLTO98GL7ASFOW0R6W9L2U6KTCINH8MBRGX01DMQJGKEBY3O8CH5UNIBTL7A4FO2144EZVHUMN9BRV62NEU1FYWFQACL2JJMO9Q9EOVL34VB1TO2F3MPMZS0YT29M4B0QYXDYHA2PCJ0IJXTKLLCFNYKH2DVDU7XXJFURWCP2SFBW2LLWOHMLT9001I5VZU9EX2O7BJCY0IFU20F4RT7XBND4QW8KH3LH4ER8WTVF7OGR8WGZS2J3HDE701Q5KAOUZ90SKA0DJ50WKORJ93857HB60DD4IX8XLNZ05AESOUKAW8JFD94EXS8MBDG08VOST09A8JN6W9WFEZWEH3W6QZFWUF3411P3J2OS08C868P40XP7G0GDF3BN2QJ4Y37XAGM03IWPKKJGEXKS4UITTA1BPE825VO3NP0FCWD3J6AGR2L3A9MPXCUUEKFYPKGNH8M9FHM01GE0ECX0LBUB0HDQ00M0UW2TSXG5JTXIE4T970Q2PL7PKE4Y7V34OJAF4NNA4ZMQDDDVDCVQ5KFQV17PLLT91IM2S9Q1RFZGY8NSMTQALY6VKC9RSF48BBN8CLV79U9V5RLIYK48HUGOHVFICV2J5VGOBWR3G8O3KO078HNVS23ML7QQM76YKXLQTRWQ0LYCUVVYX1UJRQ9YJZZQ2UGPV8EVG6QWYSUGQV5RS03JD9HU6OBJKJ6MKXIJ88LC8J336Q8LX2KZ5LD5O07LOPJDLHUIL9PLV0CWR0WIR2N2SBWHIO3BTCSLBZ0O9DUXQ2666IWHN28SIMN1UQ3Y6EML02CH47Y87PHA6KTKTYIHDAFRTBEC8IUB3OJ8SHFXJMDRH8QQRDI417P04S8O2VB5TKIXOGNZQZTSLAYW930Y8RFXIF4FVrrrr 25
2023-01-03 11:51:10,449 INFO:Message Generated From File /users/grad/ifath/amnis-data-sync/MFSTDataDir/782.txt
2023-01-03 11:51:10,449 INFO:      File has been sent ->  Topic: inputTopic; File ID: File: 26
2023-01-03 11:51:10,449 INFO:Topic-name: inputTopic; Message ID: 26; Message: ANCXOYR2UE056NFF4NNJ0WWCCZ6762YF2ASPOIQ5GL8NUJVF3VTC5SCI7O1926RDZQ6PU7EXCQZXFTNODEBM5H701SZ25ZWKVW2HE6U1M84J878EBW4ZWGBOUH80RPCA77XYYCOAGX0Y16IRPACSF8JKQVNM80EKB46JWUQP76UA9AKYB0186ZAXAYWIE4R8T81MW5C10OAPWF0XV1KBWBRGBQBIA63UDGE2XJJRL3MRMRKYEOWJMZH4C1ANQ92NFOZE13A6T8XV3YLNWZY4VOCLH97EFQ7WRHCXY34Q5FQ1JTPLBVAUQPW50Y362AOODPTI7VHM92MX80BARNY9F61O0YQAGF71OQ8A33PUGYM1XAKMEBAZ64LDYN34JFIFHKQJO47HW1RSQH87BCMSQAOX7B5XO5CYKHLZ8QQUZ7LC366OCV5PXWUKW847E3UEGFZOUNE08IDLC91G4B7G5S4GLD2KQKJMJDR1LAU58NA7GS8NMCL1PDH3OBU8NO3HOEQ5A5K8WE6UEQWOEVG7D6SCCK29PNIG4YAETM1P7W3QIFPUZIZ88QEPFWC9A45CNVQX3Q9G2Y98KKJSI1L0DEVXM34LHMTUMIE76NBWK10K49X6YNQRNR1CFY7X26PM1PI5TUKG2NAJXAUVAFCX9YDLES02ID4E1XXZR35S8DP7FIWG7AWQDYNIMJQI9TB42BXH34KQ7ZD94R9V55Z644L7AEW5N9VICUAJMJMYNS5P71914J8SMBJQMB5XMTLG4VI9D2NTE9YH6QXMHBH8S98DVT1VRMA07YIFTS8JGX5ZBB6AZL6DYLOXR7ZZ0L9PDJLSPDRO6I9FYSSLDQAVIU32Q8M3C2H7MQY8RMBU5WN8PGDW7YCVP86WP75SON56SBUFT9D37VKGW5JPUX7MDCIH1I3Y7C7LN2SCE0PWJOXAANZP9JB09W1KUW1TKT3OZPJRX18MWV0ZH118IH5W7QVPEISV8AF218PKN2Q071F7NTYKNFZEK98K0MIHOY3Jrrrr 26
2023-01-03 11:51:10,449 INFO:Message Generated From File /users/grad/ifath/amnis-data-sync/MFSTDataDir/802.txt
2023-01-03 11:51:10,449 INFO:      File has been sent ->  Topic: inputTopic; File ID: File: 27
2023-01-03 11:51:10,449 INFO:Topic-name: inputTopic; Message ID: 27; Message: 93U4NI58ZSZ2NMXJVQER6TVRD4RUEQ6RLQOWC8P12M94ZUR04DMX4C05G9AWE2JXCNFW3HTVZ9V0V9M8ELZW669SX1LFXFFEXPHPTYJIJEWQ5E9BBR2IM46PP7SMZ8XVE6220JSR77XS2D3Z8FV2NF345RHETDLTF26AQ8TZWTUU7069ZT406QKA2YNMEZ6T4F946MYUZUHTEFUCX9N3RN3F1IBFMTITWD0P1HZMXFHO4SXOMPMGLOH2JDAUJ7HMX670Q0MZFZK4SVVSNXILXOYG8LW4L031OUL4DZP5NRVL91LN3VJAUA4EUXAJZTXJN9HQTQO707GM1X4CQBVTGTU4NLUF3GG5YKCKZLCZQJCAAVAU9CZAGMENZEN1PLJWEMAR66IN35TCPUUA60Z7SSC145028QKNJT017F6H8O9PKPKJ7LH51U6EWMSCQM2X4TRCVY1LOAD04XQDRGZX8R9AQY4DBYLBF01N0UG9EGUC035638TLB4LUDADPJXGZYTII9HNZ6QPI1ETO9ODHKW3BH3JUDA4K64EJI1ZNU6RBSMP0A8LS4ADT90T41II2W13M55DM5TGUBO15U8VASGIUXSPUBDB7KGZGHFJ9GZQZVMOYO0OT0S4I4C2FCYNN7KZZC2JDVZTGPDF2A6R39I2QACHHFLJ2NK6U2Y84OV7AWBBJUVB9OQQ00RU7TIYPO0P54MQT5NEMBHGZA8OJKKCDZR87DYR8ZLATJ6OHNELNR6ACHKNHBNJ5XS7295ZVTBMXPKI5FKZAAY0R232IEVBPVSAY2KFRQZ3Q8CQVZ7WAGR3VNDBIG0R89BUFF5PIQQK7WQ3ZU0TA83BOO06GFG1QVZLDZMZ3D46P7ADAA72E3XNMCP63G60R1BS86J26M2H6MU6L24B38XSNVKV11XOR47T1NTRHTX0CGLPBN0FG2SEOU0WIAHTVR3SKTXEWZDUJC3RK4ZXPVPE7WGC1TOGEOB2U9Z09XVV84YQ0P7U026TC7Y68WFB7GX0Q7BGIrrrr 27
2023-01-03 11:51:10,450 INFO:Message Generated From File /users/grad/ifath/amnis-data-sync/MFSTDataDir/651.txt
2023-01-03 11:51:10,450 INFO:      File has been sent ->  Topic: inputTopic; File ID: File: 28
2023-01-03 11:51:10,450 INFO:Topic-name: inputTopic; Message ID: 28; Message: EGC5W621LT4JV8OT1MIGAEY6ILX0WGBDZ8S1TJYCEOVW5DT4KH13B57VIE7NLE3I494BBEMUHFBPKT04ASSEWPP8G54P1B1S4LT6BOS58FNFCFJUTWCSMV71IFHYQLF7HTS8H3S2AP6H34QS3Z213HMB1BVLF4EGRWHEYDTZ22SCNAOQ16TR03509F23P1LWV3C0A1XAUW7JESMMNI3CVNPTPP9IIPKGIN7GUBXZ4706R0TMXUIU1ZPKK4X5YTCZSXFNMMXIP96VT8VPGRZ0GT3EIRNQKQCLIIW3OYFYPXPY3WRTYCMZOQU4K76RE1M53UL4S9HPSY239WDMPQM704Z3XSTX2MADF3IIQR8BPWKA9W1BMILHRAQQK2IG1VDBQ1IZNNWYQIESV1B99ZTX2DX8OS76BZVZWE5AZ2NOW65W6BVAKCDWEHEXNH17DJ9HU6NAIXZ0IKEYOJSABJWYPYFJYWJCY4CSYNFNEG5F6SA4B2VCL45AZE7LPTC9A3C14YBX28VZNDLZY384IFLBAR51DGZRODB5YEU6W4RPHLPKHFCU3A726MHE1YCAWAPMTVOCRBJ0M1OVK4S2FSVIEOOABSOSAC223A66IG5N1ZO0JWJ6PRXAH5XYN8479K41XCL2IFKOZCF4YDCPQZDSOPLGPIARGAOITQ2V3JCDI87Y5QZ52YKTL8IX25MXGZRT1IYHEKI88L8EU1L70YRO673RSV2B9RX5WNRJE3HKDPJKVWC9YFDTORIG4PHR3UYCBE9TM0Y6DJWHS9EXJZWOLEZVTNCNVKII44ZX4N9HS99EYPJW42OAB4NCYSMDN1QNTOY24URN1VZ4J79WQTAN3D424A6Y1BLH54TI7KJBC045WYBWVXLHDWYCEVPEFZ6H65MWSQNS1J5IEQQ6DC9AB6QFY98A0OF51K2ZR2UN8H6HLZL5TX217Y1OZAU1TMCPPSW51P8UHBFE4H7B4QBY47JVGV5FGMRV1O18PTCYNDP9Y3WL477IRHSKKXN9TA7Jrrrr 28
2023-01-03 11:51:10,450 INFO:Message Generated From File /users/grad/ifath/amnis-data-sync/MFSTDataDir/986.txt
2023-01-03 11:51:10,450 INFO:      File has been sent ->  Topic: inputTopic; File ID: File: 29
2023-01-03 11:51:10,450 INFO:Topic-name: inputTopic; Message ID: 29; Message: 8EPG78ZMHNX2VWO7U3BMIS4TN1UP0FP9LD5EMQHBMC8H1VK4BIDU1J1ZV7NZ97433HA8T41F2A5X5L1GABA3DQA9ZF8EHDI4YI849X9O876P1D5VY58H2EQOY16TAKIMHUCWUNJ3VET6KD6F5BIG78D04NEGACTGAEXFCNHWH5GU30TWOHLT8WNYC8MGH7811UCZ875CML738NOHMU32YITEWGZHZPMWGIZ7MOOGCG4U1VCO9SPGBE0UIKGFHAJTFYQCADY2JUWX17RQ03YKGADCNZE5YFMONA0T93A1H9GOS964BPV33WIOI5I789IITY7F083KAA1O4SMW0XXEU1UVDZ5RO3DIN5FX9P4QSYEPDF4F9RDBMUG3Q61XVK0EII76AANJ1NO0ALPL14F8PK81TUT1EZ1CUEGCKTGLQC27SY0YKT86BECJ5S92RI4GWAMTYU50NFBR38QGNJ0EV8PN3YHCUZMNJEIQFXP4UE1BOVC3PY41Y7JSBUJM0PNQY15G5MKRXOW2Z4N0L6NYBEJXVPRWCWLHU4P5MP75KWASB3999G79L54EMKNPG3LG4EKIHNL1UM8954LPLJ0VLFS1EMTEHFXQIFG4WIZQ5N59LCK7I8E22IUNUONVU0HIY2EEJJ82LK5S5BFE0FDPHB555ECFYP32GXX7GCLEDHYM993ZYFQJO16GIVZQNRZ76ZSMVWWRJUOSXAK0MBWQPRRDAH5UY0PUQE63P9PLXU0XAPK0GPZ1JXC73VNUMWFRSJAP7M9ME6XVUYAUH4PAF64HY4GL9YQPSU048NRYCZF28SF5UNLAKIDH7MW33P62NEY5BPXH8HEPI9ICDVKFKVG43OCSRCCQRERNBL8FADL16FDN46F9RP0PYOCR7O8849EOSTIJDZVFES3OLRDFW6BQJLROTQK8ZIJZMAHOALWI5J2I819KEEU340HK1AP00418PTXM3GPE6DR3D5KSPBPRBRG6ZVASO0J7RJZGQZGBX9T72R8VNGHDB567PMDZrrrr 29
2023-01-03 11:51:10,450 INFO:Message Generated From File /users/grad/ifath/amnis-data-sync/MFSTDataDir/571.txt
2023-01-03 11:51:10,450 INFO:      File has been sent ->  Topic: inputTopic; File ID: File: 30
2023-01-03 11:51:10,450 INFO:Topic-name: inputTopic; Message ID: 30; Message: C9VQIGU9J7Y3R5RL5XMFEQHNWE7ETY5U2HTEB66THSK4R6KHP9E67LCUW9YAXVP8Y7FUSZFRE3WKWLHEHOZFEFDD3Z8WO9KVQDLSDWF4E9WTM23W55NPW4Q9FE0IH65CH1SAQ9T5AHISM1ZTOFM6G9TR10H038XR3J6TJRVSUKUD4EMTD7SVOF8HAQ901WB0OJTVIC2MZMIHAFO9K16DX4VTRJEPC7SFT1K634MQ2BC87KOAARTPCNTYRUE3PM8E58P86L90PJ3R32A43V5U7WW3G10O0U867QK4S61C8MKKL3G38D7I1AGS7HYBF85S2UL6C9Z34JRJR6R552Z8LGSD5GA54CAASRLNV1TIA0HT86JAL4EOK824884TZ9JD9MIFMJVMWL6KW6Z5SDXTEIR2U0XSKIRVD9FA9205GMKU9TNIZ7G1OP96CP2D9MVJJB7B3O4GXX189EFM7MQ72H9JMEKEL082P05G7BZXE6ROPNXJDSNXNQEB1PWRTHUIXEPBNDO3RIF84OMMEAVN1F19W48U1MND75J6VAE9GNB7FHXZKZGGFAS3VBNLMLBVS47PBU0TX11I66F4GJGE62173GV8NKNR3A1WJ5QA8L7H1BGLM0F7QQXY0CEZ31N4QNYPU4CFGOB0ALHBNMU0ZTIUN8EHU8VQ3S8XUHIZXRFCKYJP65550NCQ0BUJD2PG28YG2LNHU7NZYNKM4YZUBM9ZVIG4CD0CNMQPTX4BVMXZ46N67G5CRU1QJOHVUEZGJUBBRR6T0LSHV08GQFFYDJ9UIS3GLKUNATWAKB1H578SO5OJFE1V0XJ4IV19Q2HC8ICYK37SNWZ1KQXHVW6EW23UCV04MZ7YU2XBLZZ1RHPPGF4YPBPXH6TQWZBN1I8WS7IMTIH66U8062TOMYJ2GDTZ7G7Z81KNUVSYO4PZ0SAHT884P0WYQMI0Q1OAIP53AC6MPB0GAKMVZ5C66DOO2H3Q6TPDNTG5JKLXWA9HGBTO9KL5O4YPG20UG1C8JLCErrrr 30
2023-01-03 11:51:10,450 INFO:Message Generated From File /users/grad/ifath/amnis-data-sync/MFSTDataDir/919.txt
2023-01-03 11:51:10,450 INFO:      File has been sent ->  Topic: inputTopic; File ID: File: 31
2023-01-03 11:51:10,450 INFO:Topic-name: inputTopic; Message ID: 31; Message: P2N969B10YYFJ2Y83O0RACLMMUILQ51GSW3KRPRTY77HY9TIZ5N5GJPLD33V5FHU6SF0JRG9KHO5YAF14W7CL38HV5JPA9B4TAT4K7GN9RBSEM01JAQXHEH18ALBOGA3LE1SD35XMG8MV646ERCPFFB5ELO516F2S61VBOQIFU9938NFU7ODWITH8FA3YQ09UJE2PEWTPGQBPRB25PSW9YV74GHNB4HYD5Z2A8H1432XJEOKNAQO22B38PA12P203DT0IP5Q5WN57BQ2LOF080U12NRYOTVXOEJM34AKG00WSIFS99CLF9CTOSXDJURXJF6ORJ8G05S81W37OR8A68E7T8NMXAVCIJ4NUOWS14NULWGA0ABI3YHU8F9IDVX7HU6UVEMXTUN27LQHSDGKRBZHLYLSESRJFK5WU58LTIRAH1GGPNPKU2WMRV7DA1YPOHO6GRAZ57LHHUA4MDFQZ3F9C2EEH63DGX1SLM322Z9VB22GWN92EP3VOSU1MAO0VAB0KLH6BRVGWC9J222URC4PA9XO9RBCPYDQHDFO1QXGVTYT5HZ4V04XU77RYF11OZYTW42JG49IKPNI3O5AKV1BZWK63CYEB6ELLTTAWZARNPYYPFDGALHE8HSEB62LR14TOGN6WF6TU0HT7Q0WZF48NM8PFOM39Q5CGAQL2DJ1LT1LY8ZI3J83BOB73MIKMNHP56OQ4W1YARJR9Z9P5UMS3E6HYGM16AIBAO6E5JTF6CGN0O1WH54T5ZL72TX07NX91EUE3Q2CXE1UZ9XS61ITSM30KG6280B68E1WSO84LDOYJG3D7NSBRO8JB5QSDCIUU0NXEJXIS49EZDQQU47TGHOZ8G8C2GPIST24D4AHRBT86G3ZA12XXAL3OJ50HE53FUBL1Q0VJ3LP7FS82H3QPNW7MCKSFPZINDXK23I058LHQGHXBWV28SMTDEJNYVNQMMNGKDCB1KLUD0H1WXIXOBLY95OW0MJ5VLYFBIVEF3DU96HOUYALXKC0815Crrrr 31
2023-01-03 11:51:10,450 INFO:Message Generated From File /users/grad/ifath/amnis-data-sync/MFSTDataDir/989.txt
2023-01-03 11:51:10,451 INFO:      File has been sent ->  Topic: inputTopic; File ID: File: 32
2023-01-03 11:51:10,451 INFO:Topic-name: inputTopic; Message ID: 32; Message: 5YWI4LP9UOETINZVW3J28R1W3PYG8ZSYFDLN818WMJPDG8BO5AZ91S8TZ6PUKD0KNUUBGZ6TCXJ1JOJ7PP3FQ8R6VI7A0X4PTUQBE2INB5SQMTI7FSI5NKKQXEIT87F2GCKN2IER1N3SRGVZYR8TAT0RL967Y2H1CUWY2YGQZJCI479FGIHDL4ONFG0S6DRJ9XRE4BPANNMGXHV5ZDPTGI9DT5O1Q9LJPV146AFBZPPFCD8DVYKLEN9NSMPO6BPLWEA29HCTF0UTEEFRPIW2UXD2FHBZ3ZI0ZSXL41HIDZJRJJN4HCTIBJVN8Z5OHUHQ2LY27D1A8JW2T3KILMQF6XS1UGTCXPMRT3POHD4NDBDNKPTYLD4YDOX7PSVAFDZTS02GWR5Y9S03K8UMYDV3X320FSIOXUYML25996IWZIHXOO5424D1VJX5DO86NNNBTILMUT9VZXVQE5PLAIJNDBKMTFFXW4HWATRFS8JJ2I0KZLE39WQ1UCQOMXYLV2O98EYQ2CQD71XBXSBDAP5W03GTAJSUEVCXOWUF1AQVYE4IEMKQLZ3T26GI3JUP34UKC1REGYG10KPJI6KLPLA2V10O9GKNW2Q6QUXFLW1LD4S6J37Z5A7XVWEZO4BBWOLUH804DQR2KWCSGCHY2QQ3P35LW8IGMIY9RIUINI0Y56NNOZGTHSFDGTAX7674EYTR4SH9RYDOL7A573ULO1FKQP6N83WSMSQQC8Z4PPEOIWXTG6OX5KJSPWTRTR61M22OBUV2FEFP0UY8TBKSAP9NPWYYO3MHQJBQ80TB640H5XNWFO2V9TYIXC4PQH3ZQOZ9I9K42AMTJUPEQSMQ0616GFS2KCFZVSK0UP5T8JM7ZYJSW7MGZSXUUUFG76NBRP85E0L0IVJKQTLN7Y8DJD00AHMI2YIBUXZZRD8EKIRX42NQPNQN6B554CAADV1FVL3B8DBDGG3AUT5NWXF78GQGAU0WCLI8QUEWZLG4HFIZCFYNXTFFPKHU98KXVBRQOAK4rrrr 32
2023-01-03 11:51:10,451 INFO:Message Generated From File /users/grad/ifath/amnis-data-sync/MFSTDataDir/668.txt
2023-01-03 11:51:10,451 INFO:      File has been sent ->  Topic: inputTopic; File ID: File: 33
2023-01-03 11:51:10,451 INFO:Topic-name: inputTopic; Message ID: 33; Message: M4OQT869TFTFW4MIBWDHN6AQVQHS8VWW9DBATCSW6O3L86COVXTUZHXDBYGAHJET5MKLHWXDCSM589EN31KTQ22KOXKDKI20PY1QC0G24978JE2W2GKBK128MK5EHWQSODYGAHAUY07389QJ8RY8VIYEQB6LKD7C1Q1Z6B5VFE1IK62US2Q0NZWVWK849DP0EF0N8F20NGX9YLWZ8TYB3IZSXKZ92T2MXMJ9IX2PB2AXUZKBIW1OCX9BCDWCVUKSSM0W09KFIP7EUN9CBGAI3GYZNOB78TTW1DYNORGVU1E00K44RNDITOXOUCBRM5FDI3N5SYIS8242MZ2JLNX0ZA513COWWMJ616DQIR0Y15772IGMUL4K12ZEENHK058TKCJRPUSL4L1N9BXQFS5RCZGJOEP0B89VIGJ7CHCLH0R3UOMUREK4HOSGXT1L3WOZDXRO1B75RCEVRHGJN6U0VL96JWXWUXXQ6AL7MMQ42UN11KXQ46XNM3UUE15EHS2UX62Y21NMGJ3PNH7N65C3EV5ILAIMRI8F5DUYDCLEEJ0Z04UYENHE6R2U7IZMUZFNKXYP1T3ASZAZXHXB5LB43KWU4IK9FR6BWY9NPM7HG8N487ULWBTM6SI7C4U3IG8NA7U4TW85K3HCHK4QGQY57NX47FGWWSB3BGPX4P5Z7IQNLA320H2EVCPLNTSXF671FNO10ZTHNYXPDAJ493TYNI4P9QFSC7WQEHI9VVI8679YBNDYVTZ2VTL6IZVVLRJ3QWRBNMZFF3GYVYDXNDAF0WPOS9SQBN1FT8KXFL7MGUP1KM2W87WABWAI103MVBMIP2MFSCIEV0VPBY44W0BAEBIWLS2YUIL421RC1ZUDKFR8AIJYOWQFQ0ZKO8BWUJ0TQWUX3X2WCSWCGASLVU3Y00RXWPAMJ964KJMKVIK4MTMAU2UVA9FM7JBI65ZFMIIVB4A8DQ8G2LQ2P3OL4DZLX870KX436A0CVCTUFUP6U6ZDXSOR6A12V6Z5L8R7OH0Crrrr 33
2023-01-03 11:51:10,451 INFO:Message Generated From File /users/grad/ifath/amnis-data-sync/MFSTDataDir/444.txt
2023-01-03 11:51:10,451 INFO:      File has been sent ->  Topic: inputTopic; File ID: File: 34
2023-01-03 11:51:10,451 INFO:Topic-name: inputTopic; Message ID: 34; Message: UJIBNO7YDUMHB9UKYSX7FYL0S1BVZN5LC0HDTD9D2IRSAA5317ZNL74ZCE4N5EU68XFSIDVJ6VJTKO7NPSSP2XDSDUY60LANKYD4WHZG6AL9DW5IZ7GFYCY4JMZRZNMGM4DI4PJN9M5HJZKDEDFNZTRZW34XF4CC5IPMJWGOLV4AAQD9JYJ21858SUO5RJOBPZASZVE883XVVW8GU3YDRIE0TY5T1XWFKSPVNN7X2TPKMHQKU99AK4NKDHUR2SO7IX8OQJN0EFNWDUHNG3ME6T8FYCH4E13H9DUI57IU5X2EY2AXBZIWKWKMX7ZL1YH77NGVMNKHOP7N24TMN0RLI1KMI9CXGYUWPLFDXO0UEB3RQKH6XXUN38O9779CSHQKIFHGNUUKOSNXFWV23U11L3XCS22SH75WAPNGXXPU4RQX09HJH759RQNS77LQXYV36P1SC9HALYZ4Q2Y15FR7JNQVQEEGT8EBTZR0X3KEFZESW8F8CPGAV0ACWDRDQ5LE1BOQPYBXUM40SQGRVO44PUC7SFPR0VEOCVRR2P1JI8HO1E786OJB8GXYHDBX1RVSO6P0DAIYWUTS136QX6E5ZIQOQJ70O7PY0NK5U12FJUC1WE25LV3JA9PCDRF1ZKWEX6HWVXLFXKQCQSDWFBOD468ARCGJAEIQQ858ZX1Q0WYBERJ6WNC5JW1VSQ1XGXOS9CT7GJZ1HDWEL0PUN6RU7NBHQOL622KN6X5J5Z26QA3VWI4USXA31B4ET8CTH96BP331MSC0QVZ8M17BOREUAEN4Q2B92NW2NCBYWXPCQMINGNNERXODRJN89I4LQUQVT9PDYGHFWKHO5BM8CJJIBJ4KE34854VTA2PIUJK1YV910EOM4CG0FIM6AH0KJKV8XO2FLO135PK2177LQUT6V9N1KXLMTJ82ZH8I24QXC7RU3K7WTPBG93I6DCGP1MDENX9648QO62RMZU3QO2LFZZZH41TT86GFLHZISKWVP4W5DKWE1ZV5CZN7EO7FYX2Urrrr 34
2023-01-03 11:51:10,451 INFO:Message Generated From File /users/grad/ifath/amnis-data-sync/MFSTDataDir/228.txt
2023-01-03 11:51:10,451 INFO:      File has been sent ->  Topic: inputTopic; File ID: File: 35
2023-01-03 11:51:10,451 INFO:Topic-name: inputTopic; Message ID: 35; Message: 9VLEC8FT30KH8B9EDPCKG8DELXN7JHABTMUE3XCAON1PNNGNU2DBBOJSXVD2W4S6A2VJKMHN5OHK4AUIEN70P8351M4IK744NJ9JB68L6RU9RPAG175225TVWF7IQ1O42XFBCNHE2831HVMWFMRJ32ZUDB80XMRJM17Y70AP9V3970BI8RJO2KGGHJXTRW9LI7ZEKF9RV1PFCLP74S5X5H86J4YJJF7G1A2VRY4HF0PQDZZMN4U7E9W25LHB078G6HO9T3IWOACD9J1NRN7WF12M7Q8MM7FGRV9CXLL73I2NOAO5TL9NUQ15EM35XA8T6L2JHGA870AD9CZKZ7O2IS9QGSWHUIJVLIOJD14FXGZL0GA4Q675NLH8RZ4B1LWEPNLKXTDROSAEHXPB431C32LF1ODL1PLVI1U7ZDCTA25AO6LA5WS3EMKXSRPMKUXPN19W30Z65SFOMAQO71N2FKUZBJWVM99BFLIWH2NC7W25K3GJJ152706W8NHLAHMIIXCLBT357X83X2XHXWD6ZNUHCNXN82D57GRZRJNB7AXPW7DV0T75M3SW0TO00A0FLYF263F32H44C1H3BCVKKECTNDHXJQOQFM0YQQ5WCVLVJKIHOSWD96EEO6Z712AZN4O6MDHL2FDMEFZPSAN6MAS4UGQ4XALF35UCDLWXPQT2FX7UDRY8NUH1I4YZZPWZJ08Q90I3C1945ZA5F033CKMPY7K43G1M1LRV2Y68LXNJPDALJ663OWCH7A1Q524Q2EDH2NB3PLFADZ9512ON711C8VSW3KC6ISUVWJD03U4D22ZDLFXNN8ZHL4NWAQ0VTXD47HJOVQQSP3DA4692P94CO4XR7EL1NB1K7OUX48029HYL3PPRTVHG3LDN3ZM511DZ1KG0FF91MWKAUWZ5POEBKMNEQ883LRXKMPO83OLZ4SERVB2LZJHYMKFEFVKWVV2HIECYGXZUVTRTDX3Q4KV3Y7DAOIEK9OJDIOWVJLBCHUEOVNU9X21WZ7Y6IUVFrrrr 35
2023-01-03 11:51:10,451 INFO:Message Generated From File /users/grad/ifath/amnis-data-sync/MFSTDataDir/128.txt
2023-01-03 11:51:10,451 INFO:      File has been sent ->  Topic: inputTopic; File ID: File: 36
2023-01-03 11:51:10,452 INFO:Topic-name: inputTopic; Message ID: 36; Message: HC8U4GFW5LRRET2LP2OQGI2831OSQ4G3R18YN860ECY58QYFYAOIJH30BJGM4X32XHPVK3WXZX68UN0WLXJZO7BP8AWQGTGLTMVBZDBQY3P3J9UE7R5JBUG9OL30Q2BLZQIEOPQL8CVPS6H2UHUNS4XOQ9HC2P1THG0J5PSEMLRF3SI0ATMAUDGCDWEXNTZTG3HOAFE4OA4FJHH4AK1JNX1IUQTRDHAGVXZMTY9UCZ3RQIDZET9ZZL9QUSSM96WGCRC18FKIYEC88YSKW6JV9K1XKU1UNID8P914FNOCUTNX7QXD7L0YH1CNYL4VGE015SOAPUB6ETUXY0YQUZMIEYXUJ10DRASMOXBEF7VU586DE3A3ORY0GIOZINW3JQIVHMQUM3BXLJEJC8FRBVLQJSEBD8EJHZX9KP2L06TL509S3IDBGM12DSDHXNS3YUFYYSL9PS8MPH6FAV82DIZQA50147VCYM2I7ZS036QTBD3YDGNF4X0QYDKTEYZZ5CEPPZUN3L727NVB6J1F4FL9I716PFJYCPUORYCDKX6TDT33GAPHQSLNFZ9Q8X027O03IV0WLUCJ886UDINVRYQ5CO6A4MMUAL6CXW4UUJ0RA3521U0NYEM0N20SJYZBDBEY886700Q8PACK9VNJETNAQMDNWC5YJK78K4ER60J6KWBM6NQST4CLN1ASEDJFCC11D8ZK17RHB4I3R8W057IS7N7V0XD1ESODKDDUHNOFP5CGKJC6ILMTHUSU0CU17QR7LJB02UODDSCBOOV3RIC9FTB3COJRX229OKCLRWK8R561BPGPBK3MTDCG8MO74QUM1V3LLZARNAY0SP35VGI900YG2I96BBONABYA4C7BB3BS6JWVDTY2Q7X99IJ6N0GMDOQXFCJUV8NSYWIV6AJF48VOMTB7GM8KOTYRE9F9HMATC5LAPCG0XXTRD1OUH59RHI7IE2429RWH08UWK1BFPL0MAURKSDIQYPZ6WP1SDZ2Q3ABC3CZXQV9PWNJHJBY6rrrr 36
2023-01-03 11:51:10,452 INFO:Message Generated From File /users/grad/ifath/amnis-data-sync/MFSTDataDir/12.txt
2023-01-03 11:51:10,452 INFO:      File has been sent ->  Topic: inputTopic; File ID: File: 37
2023-01-03 11:51:10,452 INFO:Topic-name: inputTopic; Message ID: 37; Message: NBXOTFM7YTE0ICF1H2SF44Q18NJ8CY0UH35XQDEKKYIFV5VNTJAV1G3539QG5473DG6V9Y47QCU6JEJMISWD2RI0KFSFQBF347I4BN30422H7UYGR5VZZ72NBXF99JCGXI0436AQQE4TC3DBCJMJ4KTYWZ4SKSCGV18RVI7YKFJHQLKVZJHPE0KN20TJKM9HVNO4YXX7OZBIIN4LX4YITWW584W80LK4Z2WS5ZZVR0EHMOTTYNNKAHT65NZVUDVC7WI02W6AW45R6YCIE9JJYNHSNPR4984B4DR3F9BUK5TRGVW13BTT95QJSBVZKXD4AXBDGIE4DTIJVC0FAB4C4LPIYJ9W6BLV9NU7THC3F3VG07XANDS4X56V40UZRPP1Y964LOCVGX7WT5M0748A2RY9PIQSYLXS7TPFQ1GDLGD356QQFV2GVRC4X9BJRRN5V5FRAEBIX7OP1SW80KXCS4YWA2QLRT9QQ0IOBJDE18L0BRQ0F8FISSJ4NUHN2SQKF4YSRL1BNBAE0PA2KV8DY1QMPOJIWX0P48Z4NP5CLPS5C8069IKVXJ4JVUQTLWXRNJ9WL2O6ROA3Z1YXRA6B96IOKY8I7J7RWKRM99FRK0146KCV1UPEYNQ5C2IDRDPJGGV0L67M85TQUPOTJZM9OD3V21HS64ZQYZZQ6R1CVUXDW68A4FB0BKRY19QEMY6JAOX4NIJCV9O0CZWO804SI58M0G3ML9CSMFFWXPVPOFI3SQJ6MZM5J4OPSG1PNO4FO18TQSU11SYG6S64ZCP6WNG2B5BLSCWDUE2RZWKREZL3BZEI06JNP6NF3AVBVCCCQMR4K6SVDNR1LBQM8KD0D4CV8AAF5Y8HG0E0C7SWDWR5AQ0HAHAHVZ1EAX22WMTPBUDX1BAZJVKJ85HKGV1MTJMAKMZJ1V2D1TG5ODVIPLAWA3RSMAV2P4OE3G5O9KDFAIXH2NM7MLQ8ZY2A031RZ57FHEYE036EA5AN3DWBZEHEZTGKBGM1XCW6Z38SJBINrrrr 37
2023-01-03 11:51:10,452 INFO:Message Generated From File /users/grad/ifath/amnis-data-sync/MFSTDataDir/535.txt
2023-01-03 11:51:10,452 INFO:      File has been sent ->  Topic: inputTopic; File ID: File: 38
2023-01-03 11:51:10,452 INFO:Topic-name: inputTopic; Message ID: 38; Message: CBMDNYL47HE8PNUWC052ORZW0HA0MJMDOYB2174IAW0NCW3YVJEL66I1HNXY10BWJGPK82LORIBFAQ80H9KL9OU82YSLKH5HXGYQZASXMQRZ5H0B8UQAN4SUXRSM6NRJA9Y1APB1ABA3PXRUVPBL8JE9LMQRUQ2ZXGRI9JVMSWBXL62VBJST1E3ZK4Q88YN7JK2ASKFY6PYFKVOB3IKBFO38CXE11W9ZUQRZ5C3V98GNN4EEDCI3ZTYKWJPXFKZR9FPE98X95G5I35INJJHIE51PJ84R8THHMPY5NABZGBILECI5P4N1TTMLXH0HTJCZDZ8QLTC1T1P4J9VC9CBIWKS5XBJJSV9RAVGP5RXU25ZNFQKK1KHC6KC4ADHVLGJ46Z3WHPYE92L1C6KPOQ2AU9Z8ETZB686N68F8CCRFD493F6ISEQWL985005LDWVXVYZIX19E1JYH3XB74OUUQA51BPBLGX0U3A9VG1K3ONFZ005T4DFB38P3MBL9JD8YT3WKM8XZG1L3MIDX8MXP71S7P13N65KCJ388GXNMRNMEWOPDM84OQJO2WDTX4HCLRXT4GXAPC6TII0QAMSMPUX19919ND6BEBDD4ZITBWISHU8XSLRMS8R71VL3KRIC3WNAVT4717MQSX3AXNE5QVWR7J9RFFDLQ54O14EFVXRZHOKBVCT27W24AGT4ZNWSPXMZ7W38L1U690STO9RHYLM62UG1Y9MG91IWV76OIZVL3E53MKK8Q16C5HDWT60FJP90CDG98WFR5QN4B2YVGUATXH43NK08J871MCFIXAOS5VR3KPO9YZURN0HWW4LHT9N5AEC6DEVGOJKOKCLDG1X43N0TUKZA1GAQ53CEZUA66JYK9LKADI8FT8MAT7XULYNRDV0NJC2IJ6YGO8N253R66ILMS98LWSUDVS4LKCL408X6P5AJPLKNHRDJ3ZP6N3OTMLBGFUTD99Q6L90WDJJY3JAQV6HUO8FZ4TQZLLHL9GXSEOG435X4BX871HPI09rrrr 38
2023-01-03 11:51:10,452 INFO:Message Generated From File /users/grad/ifath/amnis-data-sync/MFSTDataDir/994.txt
2023-01-03 11:51:10,452 INFO:      File has been sent ->  Topic: inputTopic; File ID: File: 39
2023-01-03 11:51:10,452 INFO:Topic-name: inputTopic; Message ID: 39; Message: 8V08IGSZKK3XYI77FH8Y4Y6DU379C75WMEQ3NQQR78LIZGCCYFWAHQNS40KGRMCVV5LD2ZY2BSGZQA7WN70O44UY7SCC7KE9NWL69UFH23KNS7J0Q83KVVJGZ815UM68XFF8CID2E6CQT8GL46S3GJPKT1D9F763MO4RS16YV6MRBC9VNKGTJXVOIC67LYOIX4YAWJ1RIHIDTQFBQ3DXN0N01JQ1GTIOFSUCUQGQ8R8KDDJT2LI3YD3UO3LTYXC0MPNKQI59AVRBI23XMECZZFJMRM3FIPXGKJ5SVWSE6D7RYDOG6RGC7XLBQ30INP9682YGGBVFRPSRKHJ70GE43FHYLCT1M6K7A1UDKIK8H8EWUBMQO2IZT5GU0ISINJYHLX1F7PSUCMYRV7TSY1MPMO7CKY98U7JFXEJ31OCO8U9F8XZ7H5SAVV7M499P8F4V53D6YTV78LAL520P00OKE5HUBEBTH0WRDHWPCQ1A22P9BPPJP3N4LHDDJYR2J8H5XA4ZCVAG549KFWS9SRTPSH40KEZ6IPX1MTATPPQND6COEPIA9Q2NX44BQMQV913PITEL5E7EDF6409MIBOOGB47GE1ZGWOJJ6Z5SUDDBG1XB5LF6WST94Y5PVUOI7W01G7G8M6P5T713AJDWSGIH940TQQ63MOXK3048PFZ7NX3XR6K09Z7C6WLIGKUQ8KBKOVPLFQDB6CVFT37K5IR5TS3Y6K089PTYDLO8K6VZELW4CWL10TDOQGIQW1F6FN5P63UEBTXEVAMX7HS744NENK3Y4R80WYP9SWNF4147RCHRUGVFLMZYVZMQC0PY43YBRCW0D2YPXGK8U3YHGFXC9OKP6NJ20X5VNREKB4BCO26JKADL4O7BTQ3Q4RP9PXJKS4VN1R747755UCO6A5KZZWE8Y4KLKL6SCZ9N4NGJJVGO6XL4ERQUENVYJIMV33TA0YV0EVF5CLSAJ6NH185NRLWCL437J4S4543AMIFBV0FM6ZUHFPUS9VNNEDLUPJJUrrrr 39
2023-01-03 11:51:10,452 INFO:Message Generated From File /users/grad/ifath/amnis-data-sync/MFSTDataDir/795.txt
2023-01-03 11:51:10,452 INFO:      File has been sent ->  Topic: inputTopic; File ID: File: 40
2023-01-03 11:51:10,452 INFO:Topic-name: inputTopic; Message ID: 40; Message: NCQ3LTRV0R5V0FP8UKO6W5H3ZORFYM6BSQTMQUV6S5E8TTTJ8LQ0R5E05E6K9GW9WDDUXB1P8A8456KWQLO3CXXPCBRAMEO21CVHRMM62J3MKYUAUDJNWO4MMFP6DJGRIUQ60NRFI07769XXV8B2CYZ0BRA8NUWEQPNXJ85GB469SOK5WNHY5DNXS39L9OBOQHJMT71JE8MSUJF55MQV72XED6MD7ONENNX331SZG1TX7PLOUVCE5X8CV8UITKH9XJ64XW5PFHFE8LFHQ1AH32A4EYZDF2EAWQ79EO4S7H78GJSWLUNKJJLCPB1QZXJLOIBWZ6UTNPHKZI1E8NGFHRXJJYVNEFZI33JDLG38Z41IE94BKUS5Q5CYAEUJLFAXYSSG8II4LOYFBQUXR8PW5LIEL2OPZAT1MUHBNBB9YKZC9C1GF6ZVI10C0WD24IMO1JFYXQII43TD4KWW88W4ENSGNC6CGYY78R1FQ7XQSN7I4UTC3GTL72CA4Z0WEMW60L4BFW5I9MZAA2720C1DMQL9I51O6UE8SX00IUPXCLZX1K9CU3U6OQL1RUIBRJBYSBGLBFKOXGVTV0HXUJXMJS9CDIMQU6DFWAYIDY37HWJA9BER32OMKYEYA95GWDLRBA2X0ZG4LTVBI1K48X24976J16GGEZGYO9HIZGRIFU0LB9O540ODBY36XH75HUNDI2FKLUFHCMR3TNWS5Y2NBAXTSW41HDIPAA49KW4NOYTI58V9722Y93A8CDK0UH3ERR4K31OWIIRY1RHVVW756WM7XI6OI3GWGY1BDXNCH9EFHQI8RQQDU534L97G460HVJ8YM2BM913LQTK01EJMCVTP29YB97X9YVOGQA0UXYWQ4ZAT2F6EAGO8FBUIEZ65RDR8SICNI05L4WJJRNGLBCPTHBNVH8T7JLVC0C4XOWLCAA0SFL07MGOQNKYQFVZ4NB0PJ3JZNWX0KHG483YTCOEHJ4W53UOCYILB2UI8LMDEMPGGCIJZMMR0BXR9NCIJrrrr 40
2023-01-03 11:51:10,453 INFO:Message Generated From File /users/grad/ifath/amnis-data-sync/MFSTDataDir/382.txt
2023-01-03 11:51:10,453 INFO:      File has been sent ->  Topic: inputTopic; File ID: File: 41
2023-01-03 11:51:10,453 INFO:Topic-name: inputTopic; Message ID: 41; Message: 7302PANZKUNVLIPWJW1YF622FM59608QQSNW4WLN84WJP21YS60ZCR9C6XV9X6UWM14ZSUOWEMW2NKEC83B8P21US66IL7YHHXXGRQTB7HRM4J1YXK81JCE4G1XOAF5MB8BARMIJU432BVIF7HLSBZA5ZDCCMVPQDK7T7VO223WDY295Q614DN85W426JMSB2WF5FS2N0FJ7BIKSJ1GROIF0F7UR1CZCB7EE8QT41RHZ4C9PRA9ZR6JSETI3RDRR20WGU3UBRK0F1MEB6P8V3F6E0DPHR9X0ANSAW0863IE8SXN1NP0TMXM71H8212Q2ANH1FCKJDC23CAON3FUG4RS1JBZTMGQ4FTS5RYHWVBYTQ9EK8073MGIZKJGDYBO5PEFJUCVAZW1HNR59XFQCUM6ISQ0TG2NI3FBXNXTKK8JF7K01GNEX3PUE0ALIG9LVINTXC1ZJ2B0F6YZRYP5VHMW5T71HUIWFIZF5R0D2U06M3PL1KYPCWDFFRBDXJ72BKRKTHGJUGTKSO9QI3HMVFLQUM1YE3EED3U2K6N3TCSUVC3K0IJ74GAG7E17ZETSGB2DDU0OENRQFSLZ9NB363P9I8Q8234BWWK7A5Y5U35SHWGAWKUOPO948QX4DEGW29770UCP7HKHLRBN69TPBMRNU05MAGSFEYIX5DN31YOXH9XL9K7A8OIRVLT9DHEN4HLGN3E2K5Z01U2X58AWWLJFQM3L3RNPJFO4P0SLXA062PYZH8U36Z47SJGWGPWSXODCJ6DD4WI03FIRPQ5FXN91XD4ENDPSOY58RF3B24QAJUOEHJZHV0UMF9VKX62RE1G10IXGOHXCZ72T91VYXXS32987Q959U7243Y0VM0WA5LBIQAQNT68GYSMVV76FOIWFGXFFVRY4KR54ANWE4MMJD7JZLZB6SGVLD0SSLVAT5KV6SA92FRXFWHDFD0W7CW2R32VRBUI712S91JRYURKM4VEXA4D4P7HCUT7PJU5V526LB3D7Y2FPRBS92WFRSrrrr 41
2023-01-03 11:51:10,453 INFO:Message Generated From File /users/grad/ifath/amnis-data-sync/MFSTDataDir/737.txt
2023-01-03 11:51:10,453 INFO:      File has been sent ->  Topic: inputTopic; File ID: File: 42
2023-01-03 11:51:10,453 INFO:Topic-name: inputTopic; Message ID: 42; Message: 8N757Y3GUWBKSM2EI7092T4QNZZHOCHAO6ZCQX5B1LRD0FWKNNRX5R9BNCWMXC4QWG02C84EWNR3C0HPHS0N9C2AN1IPK2VNWX4P3WK69GMHPJI6XLG0VF0BFIARS7DU90QSNOBCU44YBD1CJ5IGE9LSFNFC2D9RK0SNT69Y1AGTIA287KPH4F4FK3GDNCTMJH7DRQJBXIG1EWSRQHOTI7QC5JCHTDLXUQMOPSWIQUCWHRJ9TAJFJNZIT1GFJX94XKYY9I94Y6GU20KF4H097JUXDAQYPM4YN6FOHS5Y3NRLUNSK6UATFA7H8LV5EZTG3LY7LRHQL4H3PMC2TIDFZ331YJIOK64NR7HBHGL2ONDXT316FXY94ZRD7ATEHOKULOCJ6LHUMACVWISAXRTDW4HLAWE1WN8YGQQGXP35WMGZP98LQ92HV648VC3OXS5VIGWQWHJVUX2PUDF3HJP8RWBBPALJKLE2DCL29FEDRP7L2A6K8XBN4WMZARW3MR623YWQFCN5OTRDOC4WHFGS3VVWMLPFPUDROHSYI6SFGYEZ4B7OT53ZQD67GTT8542V2WHRRR6UP05AQUKT7FE7I4HMQ2IRUSTAZXGY9PHW0VYKL4XNFRDU7UIBGAOCNUOSLQ16JVIKIR36A5564MP9MS5SYJI70133JASZAUO6OGBIQOI5Q09903LG3K4TBUL0I5WBIJFT03UA4FIC47IVP6T9NB8AQOT04IHW5R49XR68258H3DXMCQDLNITL8P53XKICT4FM7RALPXXNFWWOHN42CMRADNUKV8IY0LQ3L94RDPHUYFXV0OR2KF0576J54J7762YSCMNH8IOCW1SQWKNBT3OKAAMEWPG373JSBMULGXNHC4POAQLBZ1F0U2WKJL3OYENUA84T39YXOLW3PYHTPJ9GLM9H2IL327ZW2817734SACEBV1WCVCNLY0YPVSOGFX4A078F9YLNDKYN88JDBPU3GC3DB56XDKCZMNB2H6KVTDFT94TL7I7QD43Jrrrr 42
2023-01-03 11:51:10,453 INFO:Message Generated From File /users/grad/ifath/amnis-data-sync/MFSTDataDir/146.txt
2023-01-03 11:51:10,453 INFO:      File has been sent ->  Topic: inputTopic; File ID: File: 43
2023-01-03 11:51:10,453 INFO:Topic-name: inputTopic; Message ID: 43; Message: 9FC07RAXE12I78JH0O3M3QR269MMGS8I5XMY115OHYYNQLB2NO05QM1IS04ZPP9PHYFXP2DU6JJO327L0RUDUOBHRXXJPRNY62PR8XI3SHX9MTXAAHE6T32URG97Z13T8UC0GK7ZGXSJOCAY2FXHI54ZS3WNUKXM8Q943TYD91J966UTHF27KOU624X3DB8T9SY6TM5DNF2T8ANYTD7FQED7YI7N8DVLHFMT7KJ98X74L1CSYFMLFJRY3LA3CLCWS8MQDZ5L6YE9SYPC3UZBA06498BYLLQI0MSYGTG13B8BVTSKG5NM0FP1XA8PK1C51VNROUXKIS4PRJSBVLC7Q1D7R7SGQS0BS08KQD0QJ049BCE077MGRX4ZSAW9X7MKGX7O1ORATOXVGYNEUG36MD4999253Z4WYJ3650YDMC15WH3GJNZI401451NF9E56BX4J4EZVPGH2J5UN0RNU7JVCI5147MDMB376R64W2K6NRQ0N3DWSLL5F2DPJ0900ZYV30TQMKWPTBQ2JWED5D8Q53U3L6BA278GSINQ8PHIUHI6U3DX5YXIK9QSEH6JOKVRNZW6YT387K9C4VUJV40E5UU4KRZ2HVVEJSS82FA6I653FVAZX8UY049ATI72NR8YTV324V2POUGL2UY280CEI6DSU4YAW7Q5X69E2HBMV2I28O0UA26GJ3GV20BIJNZLILEOPJJDFH6HH8UJIQF6HW81811TPRINT7BU7EHI3OH1N7C3KC3PQQPP0TC2NRPHHN45WDRCCQML2C1TWD9B6WTDCOK16DRWWYFRP7TXIU4SDTY3SFJWYUPIFI4YDY6ZAYDWX6UNNTBEDSMFRRYGCDGY339TCIBC0WRFEMJX9V9CSZ2SR9LLY2X3R7T00MOI9DGVWBJLY29217I9ADWAI4J7UBQ5DK73AKHVAME45COC8CT3JBXZDM3J3QEQSIU9NC2JGCKF4KAY354GGFEIBXPPEFBOW2NRVF1O53C4JUEAZSUPL80IIZOUMWQ32rrrr 43
2023-01-03 11:51:10,453 INFO:Message Generated From File /users/grad/ifath/amnis-data-sync/MFSTDataDir/578.txt
2023-01-03 11:51:10,453 INFO:      File has been sent ->  Topic: inputTopic; File ID: File: 44
2023-01-03 11:51:10,453 INFO:Topic-name: inputTopic; Message ID: 44; Message: HXJM5WSIFP5ET9XZY8HGOY7GM8XBH783FTAZOGEPECLICF7SHTEAOBQV7NMAIEMFO2E49YU5YP87U7NHL35B9S08K9DF7RM7VT0XFC2J50DPFLGMKFDSZL50LJSCKJTNNDEB9SZ4WTIC26HIOWKJHIJMDFFLFRB00GM4V01S3OKATJPP7DD0EUOG7J1NRI5JC8SYSDWWD4HZ1ZRYYHJ3BYLVS13GNWSCRFGLWG4L3V6BMZSJB6I3HGBKIOKPM559J2SDFJFBPVZR5ZZCWE1HODV556FKE3LID657BECJ91V4WEW2E6QO6O2SYK8S01V41NFXONOCWY0A2606E5R9CS5XAF3WGUPFC12TDVU692Z81H5WFHW8RTI8X5X391GUQXHW4PJP31Y1CPFTPYSQNIS3TOKDMPLN1AXF22XLKAV9V1EF74JD0K7EOD5XGY9Y3FPJ890Q201DF55PTH1GSWY4MDWZ7HKD5L800USS9VL6GC7DU5UCRASY326HCSIW4SDH5P864V7SJ2WJL0IPG765Y1YUUTRDRN8Y43IMLKJZFYC5UC6DMIBO280TGWNCZUJZ19U6D6IX7LSUPVHU79XLOAUCI1K22YCFSRB9Z4MTJ6MD9QD5KLMMWMKLKL4TK0ECNQ0PLPQZYOZ8RBXB7J9E71TGZPY5VSHUKV0OFH827QISBHGSRQ3EC9STWGQB48SYFZM91CHAUW4HGFR9RLWN7VSM2X6QVIEPUFT8MMH58YVCEMBEION8K17G69X4LYK80RPCYWUZ4F092I08HLO7XT6AA4SLPGJA3LBUR0EOLIXT6NZHDVDH58IY3MQ2HUVEGLA15BN9NJN1YD2EE04WPDOIO48EZNLOS5F80C1VWEDS5XGWBVA4IH9329Q7XFU016F5F9KQVNZMRUFSBORWEEWAQSNYJSCOB46JSURL0X8YZ2BCDR6JQNJ2LRJOGSBD0D3G7IFXTSKWIBMZDHDW2DL1XXVQXLP26HISA58NEPXFOIBOSF8UVKG9VEQRrrrr 44
2023-01-03 11:51:10,453 INFO:Message Generated From File /users/grad/ifath/amnis-data-sync/MFSTDataDir/621.txt
2023-01-03 11:51:10,453 INFO:      File has been sent ->  Topic: inputTopic; File ID: File: 45
2023-01-03 11:51:10,454 INFO:Topic-name: inputTopic; Message ID: 45; Message: 2OY6U2D25AMEGB0RA0L3GXC0GYU9HXY1TX4ENOLWRU9BT69VYHBW5YFA6NU83Z8UOW1DRF8DCQR0I7PGQQVZPLV433N254LL7AYHQI4OCSBJKV58EDWKYP8PV960ACJO6XR8JAJXKSMG24NUBJGSGARD9DS9G7Z00WL9L3KXPEGJFO65JSO7YL0M2S4T9HWCTRX79KZC6XK3N01Z2XDU0EE3SFHUE4TIB8JR5CM1K0F463WKYFCSN0XP2STY5YUMXQQAWKKP7NCYXGLM61080UQHGHHYO7FZYU9QHR8G76AH3Q7B50C7HA1DA2DMXKHDJK934PYX2V84R7QFFMOW0DQ0X9T7AG84X5FMSI5JW1KSKOM86R43A4D2ABMS8Z37FWVDS7L67A4YUVYEGSPHQA0NQUM90XIEKE4XLFXFITM9QD1BWQTL7L4ZSQ8JE352OGV05WW8I3E6VZPOK5LLX013HJH3ZWDDHGKEKS6CEFJZKM635BYILY4F3NFSZJHX0Z5GPE5CCV5857JZZVM8E4EFSPIPN1MPT9M0E86ZVELARAJCJ257QPSIA33MVS1JNTX895GAJYCGQ12OINE89XIY7HT7AVNM9FNXWC5627QAKF870F8LSMY9FDFLT0SJYZQLPYW5IVUX2N5LINZ6S4WYBI2CJ54RX7KOJ35S4431R4FH46C2PB1W5V8T8T6P8BIRU7CZOO7WYKC1UWWVH2YTPGFT1Q13XFYER6W9EMO0SXJEB8EXRZHZWI2AO45IVXXDT0LTRGIB0IGPEPDJ96YI9EJYQXYSBHLJJNS0JAZXXQRGQFXFYKO62MBM829LOEGXLLV0VTO19D9SCNFLTTL1QS3GP9RSXEGGTSOZCAJK2VPUXQYF6QA3IIR3IV4MV6RI176IIFCSEDBSXJSBLK3D27W37Y0K9QG9VYAUJS0NGTT9R4ZPUO1B5WZ5ODU1CGALZE4D8Q4KNT4QXDKAEB61SLDXDAJ1MGP5YOH32ALDLAQQEXOLEUY68LIMJGIXrrrr 45
2023-01-03 11:51:10,454 INFO:Message Generated From File /users/grad/ifath/amnis-data-sync/MFSTDataDir/842.txt
2023-01-03 11:51:10,454 INFO:      File has been sent ->  Topic: inputTopic; File ID: File: 46
2023-01-03 11:51:10,454 INFO:Topic-name: inputTopic; Message ID: 46; Message: G80F6HPWFTM9IKN884PCGDC8SA4X0KHU9FGC1UGNHJQ95WM7DH6X477NJUCDHMJ5J5AK4ZAFZJAKCUG8FH46Z2D2O70VOBSOLJRWKPUTF9XQBEHZX79UVPJKW6S3VU6QP026HDOE69D3XOPRZSM7WZZZ48U5CTQRPCD92OYY3RO71QF40A4ELC6NY6JKK8FSSCZKXY8IH476K27TQATILIO8YH4IWWBWH3LPXJ3WOPJNMTW7LIYNXO1XK3KKP9GBJH4XSK8YD9027F146P67Q48NT5R6H7X0S70KZKZJHYO9MDZLQOZ9L8Z1OLL3U5K6RP4MUBRHCNOJ9H584UDR1R0MYTA378TUCQ85NO0GOP399C5ZKIS7PBD517715W2SHTTF1UUQ7XLAJLBMLGJ1THPK0E18R31AE2G6I7YXMSAP4AKW7M7CHLE4FS2FAIG7ELDULAJSNJWF5V0TTWL7SN3P141A9XVPGC91IRF81EBZ17K7ANHUVCDR6HH88G3QTKA5RK7Z3ZR4EDU7TOR2M5AA9IHZI6ROA5J536AJ9WU6RA2XHRT24IDBOH80QWI2CT4KWHJ9EVOAQU9Y2FUSHTMWHN9OF3CEHIQMJFUUU9AN9I4M112OO5QW8JIU03VY9W7H7TU7P1LKKHYEAXSJZWB6N9Q6ON67SFHQ507PJV1J8FZK1BFJYOAHTHVXBTMCUQLLFIES38YPHQNE0SYVZ9DMN05K170CT6ADO7SYKXIBZZ1AKJ08I65W1O3GH91W2EXLSHXSYHQLC20J0H2KVQ8TPTZOVC6UUYBLGDSMIAFAZISTYHVL4DNU7RZQ84F340JF5FKKNRKAV7FPT3L74CGCLBS7TIEH154Y1R87C0GC9E7SK036BF7C2VVJXJHV8AR8N7DH0KHMBHGYCHGGWX4KAS5CH5MYV5FAJAKP3LXH225TE3DO27K32MA27KBINVGZDRAA1IGAT8TJV5OXQ5WOX9209PL6LBF76V1C7UAUGAF6IJD39LAHCHLZSBYXrrrr 46
2023-01-03 11:51:10,454 INFO:Message Generated From File /users/grad/ifath/amnis-data-sync/MFSTDataDir/274.txt
2023-01-03 11:51:10,454 INFO:      File has been sent ->  Topic: inputTopic; File ID: File: 47
2023-01-03 11:51:10,454 INFO:Topic-name: inputTopic; Message ID: 47; Message: GPS5VJSS4Q960WP368QOPBQ1EUIHIV84N4AZZAESGWC3M5SIXTXI0DRO5Z179HWQ3PF5IXRN99QSO65CZ4LF2GNVASJ4RT7FVFIPD5NQTO6IRFZA541S5G82QNB1HLQF97ZVYSN47C0BVSBLH5VZW9FIV15ISC8NW4J3H5671V11F1XQ72NUA9YV8WEBV5MWITOCPMF1Q3VLEGULUOO28KX614FG8CKSIBQAGT69IIKBDNT11U9IHK2QUDFNGMSAMN85YI8ZHZ9O0SPU1V76KBL029QBP2T8Y7RRLDE5GLUMXR5839AB3AL34U6FRYKREGE5A9UC9KPN17FYDNK3LDE169XKJWTHI673KAEF1MNTECPXAOKGHI15WUN6XEL1J1G73ZRD18HCA4KV9KPFWQ80QMJCM8DJH6HFUGO21SZUOJ1B2RXKILPVR12K96LWUHW03O27LLSV3FNY70H47AJULTNHJCWWFKKJRG8Y9XP8FWA8085TJQDBGYTK8EGR5DJ54G4MMW5TYE667VU5SUTI5NP9MI00QKB4JIVMA651S8377YO3YU8KFVAVSTBU7TBYGMZMQLHG0HIS3S4SNZ9EBKPB5L3FI7PZLPEUTU9AP71MZE04F0GCPBXXMOOS6UP01KYHK0KZ6H2HC5BMU07AQCNSOLO0EW7BJLJ252VAF4O3NP0LT2LUDCLGCULMOFU1MTHER8ATCYMBN91FCHSWLQK182IP4RQM651JLD76SWK6LBVPR795EXLTMW6T4IO885LGC6LDXSIP3MDZOUBQA8PDZ5CPYBJKG6GYEGHHRB25JIC4YQCQEY29TJWDJAHAJZ7I5S68P75QJE0TOVFY8EGRJ4UDAT1V2T2DF34LXU11IAZALEDLIPUG0IJ4QQ3K3MG06DXIP76Q5SXTT6HZK8KPYOA5DL0GO9FDKDNOFQ8QC51E5C8DJ9UJPILG37SUUXI7U4M0Y4UQODV2X9FPFQZCQ5CGT982BU4081AUGEWCMFNY464RHIFO5KHIrrrr 47
2023-01-03 11:51:10,454 INFO:Message Generated From File /users/grad/ifath/amnis-data-sync/MFSTDataDir/749.txt
2023-01-03 11:51:10,454 INFO:      File has been sent ->  Topic: inputTopic; File ID: File: 48
2023-01-03 11:51:10,454 INFO:Topic-name: inputTopic; Message ID: 48; Message: COSDXAV9CIHRAFHA1VB0P7A69PZ7YBBC2EOU0PWHJR1GSZ8KUDPYB3FPSAJP1ZDPH0U2NUFPNP13HAWHQE2BX0AK7FR2DYJ0FSAZRFZQZJYZNUDZ0VW6SOQ9B88RO6ELXC339OZKEPNPRWMISF4VMKFL2OYSF381TA3JXBVK1430OUTAXS4C1KMFL9VKUDB60PFZ2QQCMRH9T9YAM8I80P6W6P8PU71VOZSTUDQMPPS275CAIGHNOGDZJWAPCB2JX0ST6X7S4DC2B71UKT5GIK14362LGDGXAIC3L303OUO83YF3QT2SX5JED1IR2M2BIYMSZYEUMFEX3CV2NYBJESHDAP7REP6NL33VWHLPD1W210G96VVEAL1JDSZP8VCBVPAL2XKIX4J3G3LB5WV2HLLJH261L4OME8XQ9H0M9TWNYMFRFXQSG6Y7MW7RR6DV74PB0ONE9QKSPRPU9JOZ6K4HF3RDPDVZ2ABL8O66CSH05D4ASYM5CRMVJDLRYG1XY8S4B2HR3ITMG1JO8XKFCOSP33JHU5TVUHS1R0RTY3MNXXQGTBO5LL6KYIUXVBD73C6AHK2Q9UOKNMCC3L7ZMIKT1D4HXTF0YX5C8ONEWC030Y53LVF4WSO3UWUXWMY7GLRBIPOL19JUIES71GPD0BJU7ZISB3SYL06S981BYD577BB0CX4R6Z6HY3Z734GDU63W3RTE5C8D5OXN8KC47GJ8RK9LNIG6RNP39VQ6PS25D51U9AMK3WAG18UJ0GR1G6N1PAQZKWA3154VB5ZQ6YEVB6997H8A7YX09I5GS47SVBU4T8Q2K8LKZZHHHDULQ2L7DFLMEN38XR5LHOSIU53GMGS30J85Y3NP5Z6KR15WUB2HI12ALCNMSAHL45K43QV842CVMA43QT91E73NIHEFPMRQXFTDMC2OUNPY1G6AVA0XQSVEA0AVKE7PI2V8OT5MGE6HHXMAB3JFOZNSHOFKOLXRQAV3I8UYBY4G2VD8U973RY794MSMYOZBQJVWrrrr 48
2023-01-03 11:51:10,455 INFO:Message Generated From File /users/grad/ifath/amnis-data-sync/MFSTDataDir/9.txt
2023-01-03 11:51:10,455 INFO:      File has been sent ->  Topic: inputTopic; File ID: File: 49
2023-01-03 11:51:10,455 INFO:Topic-name: inputTopic; Message ID: 49; Message: 7AQB4ZDC4Z541L9IB1BG83WW384EGUB8MEX9PZ2T6KOY70HQIX2NXDJVBFENZP9REQG1SJCQQMXBGSCPC6WRHYO692H0FSNRY29G7OO5SIJ4XG72JWW8B2UGTBI7RMJJYEP8VL52PBMG7IK5ZWO02VT7WWYB50BN77CR88491FTUZGBBV0S5GM1WWTGDT83C6HQ5LC2C5VZNX40GLL59CL42JX5J8IJCRGFDDGVR39P1TYLDNU8I7BOSFP1OK60THTVANAEW7PDWXZXYMA9815EZX59DYX20HRSCLV3EJKH5AXLQNZG0CLHWEKVKNSEHFX41UTIMFU6QEQ45HIB5ZIPLHKVDVVBCAGUJ10KEYUST6SUC5IM3XD6B6UDQII4ES36DOPEGU6RK5XATF68XHESRYCHZ3W4X1MRPDXX33VF6VG2PW46UWKT511A00FAKLP67BG7SZNEK9BXU90OIHW5EAX8RZ2REHDVZLM96UR16Y0K7FV1E1H8IKPQ3M6A7LN0SZF8VAZRXXXZBJ9PLQGFCJDVY6D0QKJH2OB5A77H8U2GZ28RUY1QRZD1UP7KC5CQGDQ33FKQM6XIVDGA2EI1IBQKBG0P55EW0UROR1EU1DE7L6QPJFYWZIV6VHXUF8ZRK84YKVRT101USZQI41TLN5SCP9MP64N4P5UDWZU7IG1JRB6U6UCTA7Q98GX5HY0PXI880DPXLGOF1HCHVKFE7I25PV890MSR2OG09HKAIHSCIH8OY9941OLMRNLJR6R2RKMWMR6L86ISVYZMIP0OX7GZ401FGTBA4FY1JTK9PQ8N94O0VZVKZV6AUTTW5BJ5JKFONXIW0AV6JOYKT1QY93KOI5QUYIBUIICL9RZYHN7U08I0ITTBZG8N5AS8Y9L0XK0TMOO5V20OVJUXKX4QT2S7UY8RK9IDHLKG5DBSA2DYM63BAQOKXO9FD0JPOY0KXDGY2HRRBJDLBME0C6RULDMZ2J691JQKZHU54A8L91XG6UURMPKNMAK9UIAZGrrrr 49
2023-01-03 11:51:10,455 INFO:Message Generated From File /users/grad/ifath/amnis-data-sync/MFSTDataDir/851.txt
2023-01-03 11:51:10,455 INFO:      File has been sent ->  Topic: inputTopic; File ID: File: 50
2023-01-03 11:51:10,455 INFO:Topic-name: inputTopic; Message ID: 50; Message: T5EDKL170FJM7R09L7QHSLMQK6GM9SZ7J611N2CE1ODSBASPTG71FMXJV6K0WENDEIKEFW07C14LR5NJN296SC90CW6398GK1EVHPYWO1MTBVQYBU9EKB088IRL95XIK4FYS0YCZMKQIWW70EUQDSB2COVGOEQMCJFEUK36HYK7W7GED9RE0BVVZR1Y8OJ1B2EBUS0OKXPYHI3TZ6N37TFSNH7G3JKTKLLRYK23PA6YU0LVY1NXLXDNWK020PAH9VX26ICW12HWSCNLVFGTIBN363PR11S86296QVAGVRI71F8TSQXGAOLT6K27QS5W7Z4UU0QOFXM1EB7RS4W1XWVMB1WPPIUZ8XYUAZDYUNJ7RFP48ZA9WJ7NSK1KDZA5C2MSS9EJ023QZSP2MQSALKZIP3G1CKHL3CVJS45Q8TMHB9HHSLG6JHA74JQRW4X3H583SS4C2NT8M1DC6V7928FT06G9QOZUWKXR2QKQTYHH0CNFNOPXC4LCUV9KSYO8J9A2QGGUO596VCII3S7A3SAQW0392YQG8J2J4YUWB8HD0GRYE7IMG3AD78PMSSH5XWRLSSWA94FJCDXUBV8L771NKY1QE6A6Y0H3WNPHKSPDI13ZFOB3CQ94UA7I80UTY5NWBK1GMIM9JNWK23KN2YCH89THCGACA4BLA6P94XUVHVMPS5UIDSJWPE6M00NZDNQ10KVZ5DV9Z1YW8MQ4HXL03Q7J2F4IPVKME0KK2DPW1CFVTZHJWCIUTGM63MI7OHWQ3QLGZT8NLVT7KZ5VS5ZMACRRFV6K1SQC8KUGFZLH0NDFEL9OF5RZ9N7HV6XGJ30LCQG6JCW2B7EDURQKCNCKPJR0YITVBVLSDIRHJN9XWP4VGI2R24WSAPZJXPTR3K97ZX2IZG3Q8UJQW8992UMHPDL6HFOY6ZEKZ8KUFQQGRKJPUT9W2CH5YAXXCV94UB0K0V61PFNQKK95CW7FY42IL4UCXOG8KSIMNAA69MIV8XY5LJ3S49AWTX7ZBF52Drrrr 50
2023-01-03 11:51:10,455 INFO:Message Generated From File /users/grad/ifath/amnis-data-sync/MFSTDataDir/999.txt
2023-01-03 11:51:10,455 INFO:      File has been sent ->  Topic: inputTopic; File ID: File: 51
2023-01-03 11:51:10,455 INFO:Topic-name: inputTopic; Message ID: 51; Message: 0P3BWIXVUD0UBGKCIHLWLHQM1B03C0Y2TTT51QL34LIBG3B1151Q78NSKWNJ5BV22G0BQ1M00E4CFXBMR7Q5RBJNJJXVL8ORZ3TKW30MVHVHD0EMDQHDVSQ7BKQXE971WJ3ZV8UXR96BDFHN4VZ9RMAVBEP7SM58PR9O7DQGMIQQ1YXTKN8WKEZFKQPS680XFTR144SQPFN6Z8N9CI56IZDDQFVDB5BBVBLA1BSLD8XSMNE4ML77284OO77WF9MRVXDKLCPNBFETKVBZ89UAVU1O3P973KC9S1V0L3BJYBIU0LLBYTXOSYMDLGFPMZ1IUJ95HZXBIFMMBYXB9JTVHTPN5F3PU9MJXXW3U0Y209X6QDJYOK7DEIF81BWENR59K8PHLK0KECKNQUPVRZYAA2P5630ACFX5UER5RIZMV33FKSBP6SQYCWOIY6EAKQ32VYH43G69J0V996ZUW4ZF6VTZX8A3K7N9LFZRSF729MKPF89PR8N10H4NGYXAO874PEAX1ZV1VHVQXHTWA0BZDDRVYQWC6Y44F4JA3H7DESW27DNHPAQ8WRPE2S7G5C9JMINCRFRUZRMV7MQ0R4HURUQF9Y4I7JDD337PFJHOY2JSWOFNL1DSJDPEDFUSIA6LU9G5S7VSIQZMLWIOIFTHP9U3VDUQT7YQ2SMCGAS8WEUAD9UNQ588I87VXZIXT9NLAQ7Z342FFVR2DEO5O4685ZM1XUTRTUEARZN8O2X7KOE1G9NE4OWVI7JAO7OTS5NXHJEUCYWWJ5S34D9WC5K9D14TA8BU5UFGSMX07W0NK6BU0J10XPHPVTH0CSE0IEAV5EH1T9C61EQ23RKLDHNUZNVPJRP5PSHSIB5TUIR3LSDK08242VVJ60DYY5LEEC06OAN21RVSJE4I2AU4Q7HE91IYY9TL9F3JYLTEB6SWVKM0RPMLY18Q0M0XRDO9KWRDB9410QZ2PEY8N99UWTH9XJ8MMBTNM775DTDFODOBP3OX0P8SF8OZCQ31NN8HT2RQrrrr 51
2023-01-03 11:51:10,455 INFO:Message Generated From File /users/grad/ifath/amnis-data-sync/MFSTDataDir/175.txt
2023-01-03 11:51:10,455 INFO:      File has been sent ->  Topic: inputTopic; File ID: File: 52
2023-01-03 11:51:10,455 INFO:Topic-name: inputTopic; Message ID: 52; Message: BPG88LRBHRP2UVZEF6WAYL0OBEQC0Z48CYKDKQ3XB3Q2CVIHCJI5IKV8O65488V15SXSCM0YEAHLIQ1M3HWD4TCMODYSQNVBGND93N2D4XKKF2YHPWZVD38ATYMSGGAHDVXTM74FZ6S38E26BJZXDIDJF9D9Y419YJVS9SYRKT35HSOEX7LFHTLJCYZD0PZC3WLY8ZTVP8NBW8SA9G8L1EL8L3MFP69QHECZOFUNY260L7HNU1DXHNLKDF7V2H7400962S410SX7B09HGBB36ISY2JBA8TQCO9WKTI3VYPRWDZ7UMRM654T9GQKVG3F5IY3HL49M5GFQVNV288N9W6CQVSA4P3035UFKLZKPU4OFYXOIHT66CFLK7AVT9CWON2F7OGIB11VZCJG01P88B4AXBRBZL1UK0FV876PYF49WP6S9DG9OYN3VAEQUODPY6JKCTCJR2RXGC1FNOJI4K84NUBBWKUJTKZED6WHGILKC5N0NV25E8GN9YUO5VMPS41SHVK67X1HCA3D2MCHXC3W0G17GG91AV7D4TGJ81FWVNESHCKWIUGQUZ8IU5OII4C3VNQ4RMJTYNZTZXELW9EP5RU8WWCB98BZ92D68829LLA5SRPK5Y8ADJQFFYVV5T22Y611FFS2781ORR6RXTPUJHRD2K69VV4Z5U81U488PP2UHU52G3EFOAHJSAB1NPI3C1AXN7V96MU0Q9GGSYRWSOG1PKN15I0VO94R931WUO7JBZCX6BXE9KQ8LKGZH1J2CUI4Y8WE1H9NRL0ZQ8KXB4P5D9BT0XIWZ76EFEAY53WEN7CPZETM64SKIYKXJ5FPOC337TBVVESB1FGDWJG7X2QWTLTJM7TLVG8RD3P08ETXKKEW6N6XGB6NO5RFOEI475G3E4746G9JTFLPE0JHPOV7DWQPEG1CEO2OKH7OC223Y3S8SWZUKTE2W4NTJ36THQBUQCA892324FK6XSV8GXAOM3MSPAWGNQNB11XPFA7LE5FL8O5WYR6LU8QV7rrrr 52
2023-01-03 11:51:10,456 INFO:Message Generated From File /users/grad/ifath/amnis-data-sync/MFSTDataDir/49.txt
2023-01-03 11:51:10,456 INFO:      File has been sent ->  Topic: inputTopic; File ID: File: 53
2023-01-03 11:51:10,456 INFO:Topic-name: inputTopic; Message ID: 53; Message: ZKQUXHUMZCVDCILUJENOR05WSEP409V23UH9AYGS0WJS7R6E8HU05QMTU0F225HV30Q4KAGPX83CJ7N2CBSOEFD812KD4TN6AXLWRJGSF2N13LYKF9WDPV47AU7N7IX8AR1IXN49W9HS6BBXWZY634TB4A7KTJ2EZX0I3Q7YWG0R5OGF50TAWRMU3TFLNZEPQ8SDPA37ORBZD4OPNJ3W3EE017U881OCIG0F3SZAJCZ0SDNDC23CTKA2C0QCA6W85K4H09NM4XDC87D5T7B3COR7U9OBOPYH2KMIXNIXFB25QZ4EPG2NGXYFTRI8ACNJDTV5NPRXEF52I6C19HRYN4N3INT8CLZNK9QXOF6ZY123Z5K70YPB5E994G8NC41U3BBKVUZ9826E0BFFD9U2WIKYPYJ2YBI1R1N238JA6K8B8CJS2OY5HH3EJRDWQBZMLTI8SDB9TE7EX07AJZTX8MI6R31UGD29F73KD0K936N4GNTTPCYA0PVJ4JVPK4AEBZ65LW154R4JNWWJFJVSB7N1HXPQ3XCL7TOAR5UD7LH1RNP48WJP0RMP5ZWUU6YYT0ELPBRG5HC05YLLXD1U4KN8EYEQ8SZ5PF5PKE5CTA97YSEC034VWXVSGZQQQK19NCIUP1CT8LD8LPIINSFW1U03FTU1VFLBACP800I47P8R3VIU8NYGD6C47KTEP00S0ALA5K12F45GII1YFBMGZY2KQYYIPK6JTIVF55DGJDOATHGZKN8CT1ZPF19ROHEYCNLR9F1QESCZ6HUA1YMCOG9MYH2A5RDNHYL9QPNBUBKWQUAC6OIIYXSI5YT59BK9HAODPHYLC4IPQB9R3Q1V0LISKVNH779WALL4AN7ZW9P7VYKZKQN24EQG6IDPC698ESBVZN88NYMZV2JJ43BQZ4V3WSENJQ2E8B09F1VGZW8OR8JVF2LLMV9X6CXUE9ME3PQY33GB07R6UNAFV0ZI0NPK3U56CVNFUN10SQ424JM4ZDEVNHA8MU6LBPRS6IV9rrrr 53
2023-01-03 11:51:10,456 INFO:Message Generated From File /users/grad/ifath/amnis-data-sync/MFSTDataDir/66.txt
2023-01-03 11:51:10,456 INFO:      File has been sent ->  Topic: inputTopic; File ID: File: 54
2023-01-03 11:51:10,456 INFO:Topic-name: inputTopic; Message ID: 54; Message: 9V8NJDZAMSJIL4G6WF56C8HM60UHQZE8M1XMOL3H8WMZOL453LB719XZHLV67MCKKD5UP884NXKWLJNOB4LWVNKP323VF2PO36TA5OMJW6TDZEZM10B4VR1TOG8O7GP5WS60KCH77FT4ZXBVQE7V86JXYVQN9ITJLYRAY053KZIH93IBTV3ACWF8JSHSN1AWJJJWZTDEIH5AFF9QLDN2FI5VF9YI59ETWDA2BYIWAWCDSUAMF9CD8WTDK18DDK3NNE37YZ25SA6OZX5BKK6HSB6K472HH45E3ET7VFJZ7FVWL2X7URJ6NFAHL6W7H5WVE3M7AJ6ZQRVXUP1BT1HR4EEVL7F0YTOJGY4966DDHHX1Y1F2L8JORUFIF70XA5LB7TGLLHO1ZSFPX18GNS81E6X66NX6RD3I5J6F0V2QKBDJFJ1WRLGAZ81CV9KL6FRICHXV9FIWVB30NVJNPXWLHXLJ67UUXQG297GPKG56RADVJ0CP3SQT9IDP488P2T9K2YHWURTY9SGN7IUWLSJRJ9KUI12RI8RYUABF7CQGITHTLLTUYSDRSTVQVO5ITQVKJ3LGMDLUTGC5VUMM6Q8JV9AOW1QXJCBALYHF99OA5X23K1V41IR52MYILKKVL9D4CCJT4UAGYMVR49512A6ITEW8EZ2RIUHDCKOSJCR17NTGNVQ9KAT51L4RG5S06BYE8N3VMB04FABTQ4ME1H45Y84U63Y0INZHU3XT8DVIPAAT07T48OCR1F9PRR24YGMFGW6PQ3O6QJLDGKN17BATNCPIOASYLTPN82NU4IX3YNT5K8K8Z5AGHBD2ZATRVAFU82VBL1F7BU4YLI41L6O7MGTFCF1QYTECS3GMH30RFBCWXUD3HH0FSD2VJI0EFD8HOQSBJS0VLN3LOD8KBHLL3NFG9PT7PWQ4HOX0MRYAZLOL9RPBC5TEXR6UCPJ0AGKL7S0KVPO8L5L77NWSXDTLMTUSNS645MO2SB7Q4TX08JB6ZONRJ8CMM6LFGD5J0WBWrrrr 54
2023-01-03 11:51:10,456 INFO:Message Generated From File /users/grad/ifath/amnis-data-sync/MFSTDataDir/436.txt
2023-01-03 11:51:10,456 INFO:      File has been sent ->  Topic: inputTopic; File ID: File: 55
2023-01-03 11:51:10,456 INFO:Topic-name: inputTopic; Message ID: 55; Message: IOSL0FYLL17G08JDUTCKJMCTZ6JIX25QSJLAO7IDBZOX3ILWGSJLF7SPJR2XPTJXG7S0MZR1ASS153XAT5WAVMMO07XOTX20QHGAZYDINJZ7LBJUBYG7KFD43DJ9OJG8S7D9VVCXEYPRVZWJSG4V0BYBYJ10F5CZ4YPAEBE873OV7Y2NXXP8OW6FG6HQVIGEGOBTS262GGUUEU7P3D4Q2RUTLW4LLX5LZX5CFSVZCP5VKQNXSXC5F8MKS7RP8MLTLR88U6XWVGEUX0FHTI05LXCRWKZ9DGH4JVU59M8DL3KZZYSBKVNPT14JU3UTO9YYS6P3DX3LSNPWF5TC2H8RLPR0FPN83HSPGN17CON9M75SVD5F6BJCBIO0UHBNT79KP2VL4S5SBI7KI7S35NJVFUT2W4BEWAF7AI09XEXP43TIUM45DK4O0173KE9T5F0VZKE99Q3BH5U3P7X9IUW84ANZYC7DEX8D3CNGE3C4SXDHDRIWH9LY3Z69ZTL0GVF8C22Y79XRENUZD2VJSZV5SJF2SQC2ZVNIJBU80XUB959F4XM6EU2Y44TQHQ6CXKLFXX7YPCVD9LA9TFSOLF28I53XNHTLOHOBI1V70YMM1U21W7D6Q57HF0KK1L9GRN99VHLS0XEFE06JSXIPIZ8WYPMMFITCCOMY877Y5P3W808CZI9UYUI7AH01Y5WLU8EW44NU29ALWR781RWH9UKO4VXVTBTP6S15Q7VWJ4NKPHBWVZ3H2E163FP0H4J2W06IDLMWEL6R9JT2XQMBPMPZRP45GRMNJTFAG2X2HKQX62NPYOM5E97HNO8Y061KAL9TCUQX9CC9YQUAL18K7W3PYG9ITZI6VT5PIJ5UZFK420CCPTXED0FXQPR7DIBIY642CUWQYSIZMQKO1CV8TW8121371WUAXD93RF3APEP8BMN6JZPWRD2M1OMRX0P8AKA1ODB119TJOX8469KQH1MN7FIYDUWNV3K5JW2RO7UROIX48D54V6FFAZOWJYL7RK77rrrr 55
2023-01-03 11:51:10,456 INFO:Message Generated From File /users/grad/ifath/amnis-data-sync/MFSTDataDir/99.txt
2023-01-03 11:51:10,456 INFO:      File has been sent ->  Topic: inputTopic; File ID: File: 56
2023-01-03 11:51:10,456 INFO:Topic-name: inputTopic; Message ID: 56; Message: 7NBUBHJPQNJRMOJKRQ0ZACLSQ3UMZI1DCMJ3PFFHHJQFNVXDXL3LTSJYWGQIRCPW6PXJKMBM6SVRFBQGFL77RI5KY50UY9QLTE776T5TL0XF8B72VO6D5P3Q3IOTOIIGR7LKOT1B6VBH1664H015E1QV3ZLVPYSE68JQ8BIXL16FFAV6FXA9UGTDBQEV8PLD6CAV5IZXFH3MGO8YUA1A3H1I7Q3ABONDR76KZ4U2U8OY8K7M8EKHA2Y66SBSAEOD4RV3P36OPFG8GJ96KX5D1F2G1J0R2RZYRN2CMFW84UCK6K94G2P8VS4OT2W5N4PLSK309T6NYZOEMV8AC3GGP4LRTZ5AU9YGTL2IUD6PGSY5WO0WYOU9XZF1SWPFZA5BRIGERLVY6OJNVJK39GSRB3DIFW2E5PG9F8WBQ2C3TLDZMAQWJPI6PNBHNOOW8LP8BELDN454XU7LPG6KQU1AW0KGPMRNIN97XO69DRM1RJSYTJAKSXB8N97ZO02K51RY1K7RN7RKD8PR5Z4P7PI4YSFC0IV1TM1V6K30MVMX8ZT4MU01S4SV9L1GHAP3BWVLLYKDKRP91BSZJ0QQBJGQ53ASF8N3727FJZ6FENXZDLHDET28JHHNUL3JUZVLX2GANX03BMT3H0Q1MQOWJS4Q1CYJP57USAYZ30PN5XW52YVYZQYXPSV4NBNCKHSLEHDB0997A2P18EUPBNAG4ZH8ZLIRNOEV1D57MXCHKYA09Z4H6ERJLSWH65BEIGGV874GFOLN4CM8TJQY1M0EG1Q1B77Y06MKETO3E7X5Y712HQ7VGA68C8FARN6DOI2EXMY8C4XWNLJ7X0991GISA2G1VIFDH8COETIMFJHS1N7E7PT1ECSURQ3JNIUWHWJDK6T9VLNHNCXCTZ0H1UMI503EW0AIN8M0WQ84TV3ELBQTRAQ5ULGD3SLE8KOW7GCT1JSR4434H5OU4LK3NCFWFUKVUN4YEPKQ0VMPJSFE163515CWUMUTQFNEUR9AFLW0EMY6rrrr 56
2023-01-03 11:51:10,456 INFO:Message Generated From File /users/grad/ifath/amnis-data-sync/MFSTDataDir/907.txt
2023-01-03 11:51:10,457 INFO:      File has been sent ->  Topic: inputTopic; File ID: File: 57
2023-01-03 11:51:10,457 INFO:Topic-name: inputTopic; Message ID: 57; Message: 2YQGU0AJOWUTI9ZM68YR83AVAAZURCSKGQPXJ0WMTHCXODQIUSN24CM81WBLJE0TC9J0I85ELUNS1IBGAY63VST3NNIDD0O0QLFNPFBFG9AHMBIULPXNG8FDXT0X9B2W1ZA9MNE2WRDUJXXWI8QXXRKLRG5U61I83U9SX4TYGJEUROD2F8T2S1DWV8QGRMMKMFE4FOYKK8022JJX30HTNZESL9KCC97D9QUS1GAQ5BO6I809ZDPNUTGY0OQSLBC4J2IM5AO0VWGC6IDBA17ENV26A6R7FRSPRC7CI9Y5GLJ08IUP6KMMN4DOIXBUXNZB76U1DZJLOFJADGDR9GRWXYL4KT0DEUWTGT5PHT2VU7MA33BB1HSM06WY862MMGCL13KYBF0OJ14H9K7AEGL4DVJM77D56IROG3PI84QGWYIH1YWFLKN9MYU90Y2IQ90VK3XYQZYA50N5OYJVHU3I60GJPP8O7II0WXYU6C9WVD36Z024KG7XGKLQMY3X5BC2KK4S4E077QMYVWIJIO3GHJ6YTL18QXYRT9R8KMZQ7QX1IE3CFCG0TWHZ58P39QH7FV35N38TSDATEHPR06O8FSKTDWL20X2HP1OQCLOEWBJYHDMCPUH19S4C1CZVNEQLOPX0L2JW3K42RAI0EODGQPVG8H5YA9HKGCVPM3JUROBR750PK4KJQ0B67Y1U7J7D8WYVFW7TUHMQI8OO2ER3T2SDETXOGKAO4DM40MML2TCNGXANYRLCYLD1U68U1EZ5D3Z4FIUMR88BQDVOERTEID27ADUGY3TXXFCSYPEKWKYPA1TL9L4SSK1SWAWEBJDJX8L1NLC6JAAP0G3WMJCRF7COH7AML9KFP52SRCER3B390Y53BM94KSI1RJWE6VJHBHKRYDRKIN1503FVU0MECF0HUA8U8DFB4KI189F40P6D43AOEOSFCO8UHIY30ZJIJSHHIPVA3ARG3REHDKA9AFF5RJEYV0OMK88MYIT3RJA3SAS0EH48FTEVY1GRBVBMrrrr 57
2023-01-03 11:51:10,457 INFO:Message Generated From File /users/grad/ifath/amnis-data-sync/MFSTDataDir/588.txt
2023-01-03 11:51:10,457 INFO:      File has been sent ->  Topic: inputTopic; File ID: File: 58
2023-01-03 11:51:10,457 INFO:Topic-name: inputTopic; Message ID: 58; Message: 2AX51A12QDB9653FFAIY1R576CLNGSU560235HV31AQJVYD4WS9W9OVI3438OY6OL3JZC8FE2WMVX0KBUR6291PB659DBEYL25SG4ZWQP85K9LICR9B01ZOTYI6GMXPO6CKM58LFNCHR78O2EKQGV7CFII4XU601GKM7IXUXBPUID4YG4EKSMQDUTAN0V7WOCVCTXNYNIFXQA6TG6R8S56K9HC9ME8YTQC7ZG525LJXLIE8806TQ91QFPIPCSRLGAA8DGTMAB71PWUSFXGYRHZBAX2O4VIY3X0Q38GBFDQEXWA8XIFD9QVT8UWWAHSARQJ3OYFEL642RYOW5TBYOY48FQ1GOI86SLOFC5YFNRQYNBWPKQSEK3V1FCFO3HWT9KP9QKVQ6Y3YU5WCPF1ACO3X35TTQ0MJPT7NL6XBW1HJMC8L77YQPLVCFWD2PQ4YT1UETPVEIHIYGD4VBYI7LDKX4B2LSHZUL4DGVC99SDAKF1TLHPXAOPBF5TUELPEVZ9Z8B8CE9HHRG2VFI78OMIQMCNY8E9115S5POPTC603E5FFHUPQ0OY2XADJZ0TWBL9P8FW6LN1ZS7M8WXGRDYJZ2ZGUN7RGXZTZ5MJCSBWZCT376NDDPZNXLOAXE7HKUHXUA2X10H1HOINWKRF87RDS9Q21EPY7NTP023LBZXIJBHPNEODBSZ3TVJGPQLJDKKRK5TLFVF6ULGMY4BA4W0T0GOR39KAKJPAOC6YYZKPEWVR3ZW1HUB4NPO3LT9DU7KBOVRT075ER2XVJN8LWC20WHPYHHH7M0NKXM37YZS4TLU90WJXK7YWE8ML1TR75Q8M7NG5JTE0MTB7MNRBMHWEVC0NPRQZHN82N410CKD4C9IMVXKJKJ4TW815PRT2T3SVAP9HHTP9WXOXHUNLKTKKQ1VUPRFS7UA6RT1AMPOD4PN519V8EGMZNI22PL97HLH7VMZ6B7H9RR52FYSI8II2RTSA8U5FVA3H4SN1HPTDFTKVTS9O78W5P9IAKW9KBDPrrrr 58
2023-01-03 11:51:10,457 INFO:Message Generated From File /users/grad/ifath/amnis-data-sync/MFSTDataDir/411.txt
2023-01-03 11:51:10,457 INFO:      File has been sent ->  Topic: inputTopic; File ID: File: 59
2023-01-03 11:51:10,457 INFO:Topic-name: inputTopic; Message ID: 59; Message: DJ80SGX2016ZQETEQ6306LU3AK1FEA1D1ZX5CKMYAVIIMGVG546AKPUIRXOO7CPYI87N71RGP5JW4I8MY0V1J3H98OM5SHC8G5H9IT71MAEZNFWUIUE6NW9X6283Q7XGK55DGBRTGVCHV4KXS7VIOUS7TQ378BNCH2W2MNC1AM6E2TJHIOOYUVTP95B14ZL5DNHAVCFW6MME9RS8SQZ0H8TH02ZUHPTRIW4XFTN9IDKQ10ZYIW74A7XMW30AZGYCSWS56PFE0H6QV9AI3IOLOGVA6ES3CCJ7M9FN71BF1QM9SYQY5LIGGPNI6EF2I7C329SVSFHXPZ23FXNBTFH3C6AU5KK052WVSP12EG4HLS6B6PBQUVSY1NX2QMIDDPWPDMRQVD5BUHG27DICBJQHQO4RJD00QJRJODIZN4FKMQU5URAJUBS3BUIHI999GA3AYF0YKGMXYPQ1BH35V2HKORCOODYQ40VVIB2FVJ2LJ0HGUZW51YMVTDTVSCZ3QB1QYL6WAX91I50DBTKRV602UOSQOVKPWNR12BXB2575M46VJJM4GUVL9EJWOFUEITLHDSXPMQO7658ZD64B8KR2GLWC1DKDQHNZO2TH68L9SE69LI0NIQHHAF5HF2IBVOWDCCRKW3DQIP0SWWN74IR2GQPI2NUDXR60PX6Y8ZCICAECT0631CCYMPLS9FVGSA9472JKS5RPR2AN4ZMAO0028V4VNJS5L9H9O4MZ03A2VBSB33D8TV9F1JJ9EW68GU4ZXG4FTK8UE57ZZM6VE1LE4X2JM6OF4BLG1E7UOJESJ9CQKA835RX4EJS2NJ15UXJ3D4SNC9ABQA3H0EZ7NZ86W9M8MZGWUZ9ODNN9ZA5DK414QXUSWCB5HXQNII7TMJE15N2AWB58G915K5EJX3EHN5JWZ44GDM4IC16N3BWUF0YVCAH4LFYFMKYVU7E2MZEIM7IMHPX1EFLWZVXJVZH6NPEDYRDIXFNET1WPK931P3AJSFKJV7NQFLZLJ7NPW9O9rrrr 59
2023-01-03 11:51:10,457 INFO:Message Generated From File /users/grad/ifath/amnis-data-sync/MFSTDataDir/556.txt
2023-01-03 11:51:10,457 INFO:      File has been sent ->  Topic: inputTopic; File ID: File: 60
2023-01-03 11:51:10,457 INFO:Topic-name: inputTopic; Message ID: 60; Message: TQJYK10Y7T5L4U1HZ6MHYAQ6O9MC0NNIEPVEC6GUL3OHGG1VIGLYRQGKO88LWGE10MDVCOULY4RAQMBKI8DWNSY15R40WEK91931Z48M5YFZCYC3Y8MM1DQ1MOR5FYMC99L1DQPB8R3AGDEFY9TPF7R009E57MTY4T6C4RT762GFDNDHZ5VPA555RIR2DG1N30GBXZEB5DUW18N9PGL6N19F76GZXC5F0T7US2MMLVXI5ALYVND3PV5JDAN87CHMIOY87VJOQNT7E2MUAYCWRR1LIAM53DRIORJAU77G630AR76MVF2QUZB4HPOCUXZ9G9B67J4X54W98XZ13HHMGKZFKVT3S5MSL8SGXX52W53YLQYY3QBL5DM54BBJ5DEG76RXQJIEXGKQOZL5E7SA28SVM1E1BX1JG2WWDCXCPH0ANIJWMIK0ZSC0LPXRA8NRXIZRSDZU4C4BF6QWFM8X1DPQ2QS7MMU1YJD8HA96Z2E4RUX9ATQGCUY9OYI6DV1WQRG2TT1QF9RNIQPNHBWT4BMOBDSUG05ZDHIWZRZGAFUSK6DYZU368LS9UWIEK3NASSP8AW37UGLA0Y3X36QIUVVFIYFTA6O6XNQTC3C54TDZK9C2NSWF5JAJWWKUL5FTF1CWG8K95UAYO7NQOJY4ZC78OKK8WXVJVA4KWFUB9KSHGG8WBYEPVP11MNUOYRWFG8MNIRCKC5D3AL0V1WBRYDIUJCKGL16HYRPNT4YI3E2UZAYDXKDHKYER9IC4HGEIB57I1SQPXDWF4BBDELMVSQ2OXNM0IO5BT8MOB6QUL0B5XEC4AU7XLPXNFSZLUOIDFSYAL05CFK59OCOE91DNSNKR3A7G8BMCSO3GN33X076APHVPQFIWCGT0QPLI2QGK7O15J461FGKWPRSAZKPWYZ4HQ7H3NGXAANLG0UKI5BQIDJ21VR12G0JMLKWSG9GL2OAIJDMUP214LTTWS4PXXFWS6L662B433GABMIGY8JTMPBWAPYL18AL0FOF4XXTFrrrr 60
2023-01-03 11:51:10,457 INFO:Message Generated From File /users/grad/ifath/amnis-data-sync/MFSTDataDir/319.txt
2023-01-03 11:51:10,457 INFO:      File has been sent ->  Topic: inputTopic; File ID: File: 61
[...]
2023-01-03 11:51:10,675 INFO:Message Generated From File /users/grad/ifath/amnis-data-sync/MFSTDataDir/5.txt
2023-01-03 11:51:10,675 INFO:      File has been sent ->  Topic: inputTopic; File ID: File: 986
2023-01-03 11:51:10,676 INFO:Topic-name: inputTopic; Message ID: 986; Message: Y4J56JZJCCD8BE9VZKP6Z890ACE0JWG2RB5KYNDDE4D5T6ICH5PU4C2N7YI9O4QI1KU5BCG8Q11HO42NVUZI67SWPQR8JCDDBXZW36C3P6FDJ11GK20ASFSM62R797GBV9WQOEX9AT8DBTTVR54QN6GVHV6SUHTJZZIJ0CDJY44YDJWV7A45PUX9K39YG70G34CEIQT1TWEKWUU4Q0TA4UVFGMQ4YY7DLRQPG0LJOVF9EVXELKQIWCJZLPE93729YTKE93VJ8G2E08BO02IU61JWZ2LN54GT8SXXN1A4J08SUARZHEN5CLVHLPE68KDTYF6SHAKU9BJV4GLWPX85MI5BLEMLS6AE229U44D5J3X2IA0DGVA4EE7BB6B2V6X7WX5ZWDYLVV3FBJC5YW1BGJ03PSFVOLOY9WVD7FLY5GT5NRBZ9KITING9UM43ZQBCWIYW5H3675AE7YB15JKGJ6ORO8UCPNEP3AOHII84OB6G47JYD1LB69T11LINLV2NY2USHO4J40TKEIQ1VWADGZ13ZINKJNTI7K8M4FEICWYTMPSNCDWY0GUW1FVTVJVR9MKI8FG4HAZV0MNZPXQS6TBF17XLK4WFR20J769RVIUH60WCIL4OE5H649D9LI0S68NQQOQ2QD5GQHT9E51NU23MZ12F62TMEWC1R8ELR2PGUROOULIDAVMC2WTNIICCD1T2H46YINNHMLHIVQ0H5TYWJYSRLF7NT918KOMLTKQJWBT91FLO4Y6AL3UJA4KVX9E08UNN70LYWN9WBWHHBUJS17B3L0RRS9Q5QJ9M7FG74QJ9YPUP8MQRT2DGAGCXPG1M4PB9WQPDGC3P1G3FM2KQ4RECEKPYE7EI9GFC8MZP40PPBRMLN4H9GPCDHV20FVR1YFSLBJXRD17Y6525GLA3KYACKGPGKLD49LVIIZFUW6ILYLYOUA7QC68RTSMEKP22VENTEHAWWSAGIEQMKBBK8F2WSIXML0RVCP2GHLQWO15FQ8HP9ITU2MPODLRLrrrr 986
2023-01-03 11:51:10,676 INFO:Message Generated From File /users/grad/ifath/amnis-data-sync/MFSTDataDir/94.txt
2023-01-03 11:51:10,676 INFO:      File has been sent ->  Topic: inputTopic; File ID: File: 987
2023-01-03 11:51:10,676 INFO:Topic-name: inputTopic; Message ID: 987; Message: V54VSLDEY5CFIPDG6A4GFYAKPCJDBKY6DUKVCDJX44XZ2R6DZX7O143S4HW2Y6GG4XT7XPCVGNRAC28OXCX68E8MVU6TB79ONDK7STYQBYPS68SQCIHSQ5CBTEUSN21IP52DXKDWCUA11JIZO5KDHK6TBMT8Z5AOW5P8F6AI3MB4ZYNF0THTXNA6JU3LLTHFRZS4DN8EC50P198AUNRWDICCBVSJVK97T7S2T881DEC1Y9RGM34FBDIBVJE3EFY46ZLC45CN9UOP181E3YDDDWD14LWBK32X1H4W7MPI00NH8FM6HJL0SO0Z8U3BD9TB0JJ0EX43L97I42CS4PQTS7590PS38Y85CPVN3SE6NBVV3Y6VMF0IFJXB91PRWZM2HZUXRKX9LG1APPPUXQE5MDD8C774T4M67Y27YN5XCFJ20CAYKVF5EDSASN3T6YRSUP2NMEQ9TQMA9XR2ESUAHD6VTXZD7PAH8UCOMV06BSAX8PXU4P43SG2UIMJOVRR8PPTKDX0LJTERVDTW62X392A1GEGPKTUL154I3S0KZVZ62GTBWFK3L3IDF11WQWNVYSGC1O4CNI0OZSA2EPS3C6XWLY8X7H6JXIPT2TNAS9F7661K6KFSQVSYBRSGZ6TP8GAQR4LRSUO03YZ0L8VW2TBTK23F6VGI6BOLDM59OHCNTDCQSA3BF0Z78R7Y2JALG4G8D6WS6U68KT2XAFJ5FFKUTJUTKFCW5RRZ0VZXOW6WMDKN8AWQBZM2EOH5PRL2DMFX6013NTXABJ6VASZOD46VBS1KD2HWSJYZYUXLQ0PR0G3V2RTOAUGNAP92PRRBX8DY1U76IZ4NU5PIXD83E0DHJ27G2VXGHHPPS058S4YLPLY0CZCHOP4MUXX42YCU6H7582W3MEJJNI17N8MLM5EUI8RLHQ2YCJK09Y0MA6VBZGDIT5DYCGZVQLHZEBDLUV860Z04KH5U5P7KLRJQ7F6JL7EBY2T8EYKH6XBHE3WT9KGK02X0W0I2U9EQHUZGrrrr 987
2023-01-03 11:51:10,676 INFO:Message Generated From File /users/grad/ifath/amnis-data-sync/MFSTDataDir/985.txt
2023-01-03 11:51:10,676 INFO:      File has been sent ->  Topic: inputTopic; File ID: File: 988
2023-01-03 11:51:10,676 INFO:Topic-name: inputTopic; Message ID: 988; Message: A56PM5QPSAONNFYLPVHQXI5OWS1C8SF08G4B35ICVQ6XMK5O7BG14EWCRM8C18U6XYOL3YI0L5FF9WTEX0KTA40Q4R79W826X4B5N7SU9V72MXHSUXWNQSP3PQETX0BWLHA9TN66TFWU2VM4Y82BH2QOFY6URL0NZ1Z63W540JPB5JJFMQIX54NMQUPGW2SCIHE7T2476CQST6YDO13L5FXL75CU3HQFH7EU4E3Q2B441PS9B0FW0O69QRMJKW0YFY4JRJF85TK3XMV6BTVKBHF5DTXC4CQI938ZR99TZ7W2I95RMI5Z13GRQKS4OCG7ZURNEU9ERV6OY6D61XG38G9O206RQOEHQB3QCZTXI9YNE5N3E7SJQQQRPRI0JP2TCHJUV7NK8EBWDQD3QUZGDE9RGQMVQQ011STVZ4X2VATP83QIIXUDXDVB8DUMY2UYVNUFP1PVIKTFEV3ETVJXVB3FLHU9JIW6W5NX1F8F6VX3HO1F0KV7I754SK9WWJUJKN2ZNOM5EC5PGK0VXHIA23RGRIS49VCTN113FR6866TR0UUNJCTDGDDCO2YFM5JKN2H0Q1GW37W5DWWL5JI4XXD0OE4QJBRYH928BGH5IV6KKEDQ401VTPHPRZGACAUWTSGAYEFYBI034KK9T8BD2X7JO1LYW9GL5RFMQQMH9VO67SAZRKG4YRSH5RDTIZ5G83TDXWO31G0XPLIFIYFR3PEW8Z35E6H23T8BTS58ZLNSI6B0QSEM8O72F2S661FVB1WGL949ZHZ2EQJLGOJ4FW9DWUU3P22ZXN5ISAPDGOA8J46K89E8ZPZED8P51P2JNOXDWLFRMIZR9M2L4UYYWWBTZBHXD1JPZQQAHPGP1WKRKF1SSY2O643GK4SSS5XN5R7CBGRDZ4KTYUH3Y8C8T2BIZT2RW0ELXS7AFDPVKK8AY4D5QZB4FGL50NET42B5FYSCSEOXUTV4KWFI0O9Y737CZ26K2CGRR6HEPNJLZMODQC0ZKOV24JPVYMEQ0L84rrrr 988
2023-01-03 11:51:10,676 INFO:Message Generated From File /users/grad/ifath/amnis-data-sync/MFSTDataDir/951.txt
2023-01-03 11:51:10,676 INFO:      File has been sent ->  Topic: inputTopic; File ID: File: 989
2023-01-03 11:51:10,676 INFO:Topic-name: inputTopic; Message ID: 989; Message: C6BJ5ESF0N0OKQXQL4XZTRA7YNGONKMQDK44HHLEU79605JBNQFAQVNHISC1HT0IBACIG2ZSM7FKVTQSP6QRV1PAJ2TD1Y880N0G7E78WREN4R4KO428WA1RXXCI7LSC7JZTRVWVU47Y2LD4NLL7DO6XXQO3CRF8BIWP1XYIXPBM8B906MGMKMXQJZQTCZZ3RC2FCEWLCWEHX1Y56TI2IY29RM1A3NFLISX04F3U581ABVKMRKOA2LTE6QJQDIF7VF6XIG8HPCVHVEAM85AJAEQBSDT9KAQWJ54DXKU2CHK863KIHG2KHJ25PBED89IL89PZR7JH77AWTYBOERFQ5SDXZRVV031BXJQ3SO340KNS6M3RX9IH7DC9GLNALNB9PP9PZV776VIXCSFZJCKQLXVEM30QN9D8HKKX1SPUDISPVFEI60PY5XI85N66DS51G78C9JUI92N8EUQ5HOP73YR225RF8KMY50POWF5UMMKVNLZ3UD86IAYDOWNMJ6R7NG1KOH0HK1G1CZTN33GZBOXNDLOGS35CBY1HL4BTMSKCXSHHC4BRNILOC7DSADJ01EIL8202UVHN3S0VFA3G9JGDH6YVB8EGAW64VEDEEV4NA6DFOZ8AKGIN58T7YHKSLTNN4WN8CH51MK3585LWH6S2DXSZ2YDBAX4L8FKP6QUA9RKXQ1M5NPXEMHN8BLJLV9VVMH8GCJZ8L1IKE1IAWVACBS3ESP24OYKZU7PH534L6HEF8Q7EGCNO8VSRVFJ1UCDJK4Q3ACXN36G0SNKX8PPN81NP3APNYMPS57BPAQWQ1XTF24TR13OG1GI6W3TE7IN4T182W2O8MIRQKCO1V2SIE2AL3XGVUY4HGU3K306WL118PJZLKXCYLX7QFEUPI7M54HR82008PLK7KC2KJ6D7Z9OCF4JQMPLBIQ917TIKWUQOZW7XSTVNAHOAFJRXI9IC7YHUK6JMQKN0FXUO6PK7D4JNOB653LV8Y5T8RQYXIJFKGOVVA7T3WPUSYLK5rrrr 989
2023-01-03 11:51:10,677 INFO:Message Generated From File /users/grad/ifath/amnis-data-sync/MFSTDataDir/637.txt
2023-01-03 11:51:10,677 INFO:      File has been sent ->  Topic: inputTopic; File ID: File: 990
2023-01-03 11:51:10,677 INFO:Topic-name: inputTopic; Message ID: 990; Message: MXHUVU854GZ8XO8LNA17ERHOBBJIKU1KLXE3XPVK34BEHFJLCL0HQNPGA14D47VNTMGVUXZVDGHLG0B8G0XGWSQ7YO5QQIFJVN4TFJK94ARHDQG9H5P5GUJIZ0PK65GNI9QLRA8CA35JTZW2C7F3J6RYMQ959J4N3ZP9364AQIOEIN90AZ3XAD8T59BULVWU5PUF6E7XNZOJYF0HKM55XEBPUD7NPZW83NS0TB3HPU3UANI20PF288T3VTYX4UKH25VPXNUREPXD4O0SSPSW8K2TINOUEMWG455DPZJCQUA77TK4OIDC8B90K8NB28W7T88KO3SBGHG7XE418185213SWOIQCMDOMK2N6SUK3G0X4HABV7OZZIZW1DQTNXU0OJ2U5S43QQ5GY1EXFS637A3IZSUYAPESDGTUR63ZMW1G2CGEE7YS1GZGIE6GZCU2C8FJCRF7YW5YV5HBT42BQMPPOMUQGI53P2NUQILSKAVSOCNK71G6DL707T1VLL7VHQQ8BZPVLTDJCTLWWOEZS38YK2C8GQSDXIV2UFYSM2QLK6DNDUZDC1ANVJDVS5YD2BQUCQ4DVGWMKNYJQ6GEVDWFP3WIOXOR8UEJ9LAUTST7XD7OIFIMKQ0TKNW1EZKPJXEM9W8QL95WLAH58G47C8S6XHOW0VR62IUL8VSQ1GETDP273JFIGY3IT13MKM8S3FYXZQMNPQK89W7UZCGMV0A1ZN3Y8A19UPO8LAVKASNSO8NVMN2Z1P7G67EDEPP8LIKS61J966GHH1AERCQ5W4LABDC5KFOXXH9LJ53OKK53FERYHD0QN1NMF1BZ970IGKCQGVOW4EEQB5EYJACZT5UKLIMZEZBO8T4IPASSAUEC6JWAM0ZPWZ2GYXBDHKX25YQRPNEC9RNG4JKKH7QXEXDZ8ONVXE7HY3VVIQA7XRUITFRAIO75BJ21DYGHDBGHUON2IM4YR1HGPE7XGMSLVDBY26O0PPD51TB9LIMW77803MWLK956IEA44BBKJHTDrrrr 990
2023-01-03 11:51:10,677 INFO:Message Generated From File /users/grad/ifath/amnis-data-sync/MFSTDataDir/154.txt
2023-01-03 11:51:10,677 INFO:      File has been sent ->  Topic: inputTopic; File ID: File: 991
2023-01-03 11:51:10,677 INFO:Topic-name: inputTopic; Message ID: 991; Message: 54HOM7O94J44SPTPEWNYIUEZA5SNXB5T7UWO9E9O8DHJUHWY8L6EQDY9P3J9WS0QKUD1KC3YJ4Q58G6YCBU8RGQYMHQYHPCYSP7XRJSQWT14SKKR6I56OOBPWJ07504ZBDH5J3N34LOUIKEA43Y74PO6HMVLI7C2GK4VHE0172O4RKGXVLJZYEKIETBNE3OENIOPEBZG6ZEZATJT6T7EN7YL9N2ZQQ9D1ZYPWPDXVDJ9Z6TLAS7PF6DVEB53MB4A8Z06B3XWA2E9WENWPHCVP19HLJL5WCPUEDLNEOXS9XDR21T1UDAAMJ7QWCZRSH4MN7HLMYVHGMNREY69ALC8AP5YBG9MCKOFUBXNNOZEXM2SML09791UTMAYYJMQMCHJVEASMSEWAGXJYYJKUV6IBUVXFA8G9X610S9UFLQ8Y5KEI2XGBFXEE42DLWPRLRUSFMRJKSXDWPQ142PB3Z18174TNWIO3FN3TO4BHW07VZAYGB12A0O5ABHWI02XPHCQ34LVZU1F17HWZ62Z0QFSXCXDIW8E7XOGNXBKN5TK8TA0PAMG9W347XLSK3VNHOJ8RIE2GM1VIHUO5CEYLAEIK8X1J4XQR94BWIFEOYQ92FI0M6PTNSFAO7V7LB34BKJ8B5IAKM36T6IJ67AXFXA9WSK26DBLO2F3SZ2KMNWT77XAOQJYXGY4ZYF1026WJE1DBQD2KX5CXJ418PKP1C590RET9AZG2POX8N9GC0JNOCV4SXDLLI2BCH8NBCL6RUF6SVE51SBA6EFBVX1LXPMKTTHUD2KKCHTB73GXWM9ZUHBIKGZD629Q3U8BL36A47OCBUI94PMEQ04CDA5YMUKZMMXZ4YVG6HQ43QZ3JS74YHJICN9292NCF5TNXGVQIZS3ZBS5XA14TPB2NN73A7YW9BTEOLUC6BLAM3UGIIH2BPZFAVXAXUOIYXHZQL1WGFAH7RKYK8PAI3BX0OGF1517QHVMPJMZW7TQU04R0NJV5D94Y9F6MIEJM0VXHCE5E1ZYrrrr 991
2023-01-03 11:51:10,677 INFO:Message Generated From File /users/grad/ifath/amnis-data-sync/MFSTDataDir/104.txt
2023-01-03 11:51:10,677 INFO:      File has been sent ->  Topic: inputTopic; File ID: File: 992
2023-01-03 11:51:10,677 INFO:Topic-name: inputTopic; Message ID: 992; Message: 7UJK841W4Y330OUNU81NL2M92SMB7VR1VHRQHHR9DTN0UTD9SWHZDQV2DDB7ILHG2BEFORW1FASNOEQ495CVKZZRDWBGJPDTCOIHV55RWTFI9U4PPD2AA5UNFPJM8HNGUYOM79CIMQ7HM43K1JW9CY2BL7DP6KYBG815PWZJJP7N3QBO5SX17TFVWJ54UURB7YN84PE5AEIOGSQ5WWSIVZP5ZGJ6UWQAPMWT65XL7QCYFHRKYHEVF8OJ966N76MT37OA86C9GCIRPFSSYPTLXSIINY3TR1860FFWJSJ3910XTTB84MTZW2KNNEK4LAFHBDBYNRLLQWALCNBWPAVA5JR3SIYL0QNAUFJ4K6YOUDMTZ1N0EEYON4GFDN9PM9MSDZ85URIHYPXUC6F7FJMGOSJ6BH79BGRU2DT081EDV2KR1YXQ79H4TW2N05ZP126STHF39A7L4B6KHPYS0VBZOV98W9315H450LL6S5OEIV41A2NRHS9YUVF0UPT322HFTDHYMMWFREA9EZV9EV5PQ6XV74LN7QRCSVSTJ2KZPPRHY93NP1JOIZ8YLKEGSCHSV5PE0W0D8YRABK2SSGSH81UVAZVRY7A4JQAC8NWA5UIJCRZLBFJJK5ISOO9QF5M065S73HUPSI1CQOSPHVSUP7XKOMNCVCCL344KZ5R8M67ZVC7R0WANL88TTXNLD78SFJQICMDBHQDTBQTN5K5YLS0U815T9IKGG2PE4CA0I9YPXP9Y4JOL0PMLTX2RCCRS7AY1GW419RYRXWWGZD6SLBE616ULO3HOUS4IN4U129QN7TQC8YEADH9U0X64U5YFBU0S05WC7FN827JOQA5815BB31B6EMCMJIHL9DAA93R46CSLUV84L2OZGR52JAR4F2H6C95GM1TPVT8N3QN4ZHQWEC6W5JQZGGLL9A6RMZ0OHAT1HGD9LA1AD803AJ9FSR2SL9FAWL4FUN9NK177MH2JRNS70IRPBQYGOCF41YXBY9YRV6EJQURO4Y3PEMVWrrrr 992
2023-01-03 11:51:10,678 INFO:Message Generated From File /users/grad/ifath/amnis-data-sync/MFSTDataDir/774.txt
2023-01-03 11:51:10,678 INFO:      File has been sent ->  Topic: inputTopic; File ID: File: 993
2023-01-03 11:51:10,678 INFO:Topic-name: inputTopic; Message ID: 993; Message: MZHVV3YH98UNM8K9VKY5P5YJHA6XQF7H96KMN9ZOO3QXO5XA9X4W4MD4NP8Z2KBI3GJ9WHD2ALTPKPA0CHB0CLM8KEI9TZH2KQ6TU8PNUIL2BYRBDYVN5JH36ZLPIHZ0S0XR0DWT8JLUQT8Z0KYZ8CN36Y3PW335FE46S331EKP3Q935FBM2J4LLB7MKI0RRUEBXJLGLPPVF357Q685F8VTXQ6E0VRI9M92TNMLQKEOGAM3N7MQRLKQBIAOUE2FDE0BPCHCVD1F9AT7HRURMWZK4TDEJBKPMKRTIDDEYHDVO4S8KTJE76NHQ43PA1Q2ZY7E3I35B0FRX931R0QV12D7HWCOHDSEXXJ57U6GORK1U2A2ZM8Y28MDOMT4192PDZ6248QXN0ES5DK1W3SCM1P441QCIGQOGKK7K0WEF01P16K49UUT92HK6K3LIA0PLMK6LS48XYAMQO03VWO0I7PZCBB8XQ0W82HOIRYLZII6KO9OKK4UVA6UO0XCJ6P0W37SDK55I5F3CHKCAVVANWHIP6QEEE6AJ4CY6K0FMOUFHXPYKDCSI461XVYUF4W2K30KKX9ZXLP3SRL25JCPJDQ47QF9JW53YW922U18D0C9IGZK36UU0Y4B8OMXEL8TKXZHLS8UUEUESWR5US9A289W0IOQJPJH77CAARMV6RI56J489M4GVDNV90AATH5SDGPUIVA9WTEXPWNXLVXR06QRRMI5WEUY6YP8K4ZIVVUDV6N4ZCZT4SZTMVLD2XUG9GDO2MPNDX3WDB6HKGFAQ5J32SBZ51KBXFBCNMKIDT69XWFMKWF87QLWGJSM1Z964JAD611CL1GS3X3FNUY7HUAGHMXGHOH7I6Q5O2VX7TYQB8X7NYKNPWWM18ZZAOZAD3EB4YIHSZA14KH88W7WY498QGYSXEXKY8ZGP5X6N9XEI9QRM6OCF6GU6RCRBFLCNCK1I0ROASXSQ2ADELSSBKA3VOUX6W3OYCDYU7DDZE0NVRE6LLW2I485RE00YYJBVrrrr 993
2023-01-03 11:51:10,678 INFO:Message Generated From File /users/grad/ifath/amnis-data-sync/MFSTDataDir/215.txt
2023-01-03 11:51:10,678 INFO:      File has been sent ->  Topic: inputTopic; File ID: File: 994
2023-01-03 11:51:10,678 INFO:Topic-name: inputTopic; Message ID: 994; Message: OIW1CQZDBAZTZRKIUX1TFF879LS9MEVO85BPVQ0GL3VW8SZTKHOANFDZFZTCVANTWN5FVUFNQVRGQQN9S01FH1UKJFZOYHW4KTI4NF49ZGWL71S1RQPJ2NC6D7G70SB8L0PQIMF4IC1NDH21B2F8HB9DHW5ZVSHXXOQ1NNLW8RADO02EJ9DHQAHK3CO0FD3B5YIBEYDJI2XQBPFU3ZCEY1GFGTDE7RQ1ROCCZIKTXWTQNXEIT9TPQXQ4E1YRHHDLLPI4S1Y8959U7Y57C5R4IX08EU3606CR25SMX4SJMFJVJ7L2YJQFCWSYAIKC8VU9TN2WEK68D57SHL59FC99DGU599ZDW9ISVV3YLGIHH0V3RQCLCB5LDYKOBKXTYWTGO4OHMRKZDRSC1LDT9IILCY0I5L4COGKRPO7LINJA1KYPQ3KALGH2JO3BTMTD0VPAFSLWYV8JAW5D8B2Z8029KX76AK5H13MV358BPZRX54OHEG1GD5SMGE6V0WP3QFG5FL5G0PAYEQWJVKGND48JQ3RZGBJ4EAS7K9YDJGTWXEO29VK8OPGWD8PN8NWACPDLD3ZYCM3HCOKKMWFRKFK0NMFHCXUOGVNQZVW9XXRY27AEZ4B70QSKFLG9KUY9ZK4HXGG2DT1HTB2J3W8D25MJ9IW03AWAHXKM4TY29303O8TFG5DHFK32XVDEASFP9QTN65K3F6QH6TZOP4DNT3DYEHD1LY8M4VNT6Z4XOP5VVZ3EWKN95QR9W2NC84VB23NN985KJKYJMA13811HGA380069CCLAH35AQJJU4TM59L3WMC13KKUXLS45FAKAFGW281C9G2FUPQ4GNKJEK8SH2R20EQPVGWCKUDQ5HDN575F78Y0F0MBJ3FQ7CO2XI4JJX7R7HXOZINWDUVC254PICJOPY5VXCEIHOJTZ5FPM1OG8BZZS8L74XPBMZ9F1DAW43FWU6EZQSJEH9VK7WLS4KF0OWQDD7R3I4YR2DDG4FO822Q8IOZJ8OAI50DG6RPB2rrrr 994
2023-01-03 11:51:10,678 INFO:Message Generated From File /users/grad/ifath/amnis-data-sync/MFSTDataDir/60.txt
2023-01-03 11:51:10,678 INFO:      File has been sent ->  Topic: inputTopic; File ID: File: 995
2023-01-03 11:51:10,678 INFO:Topic-name: inputTopic; Message ID: 995; Message: JSQ38BKHAVXYU8GNR9TGEL4I7E8RYHX959WR3M1M7XIFY8S2YW8EI1Z638PU4SF4GMS3KQCW3XETISPMJ5NJQGKLY0PXIJJ6YV9UDFXNU51KMVRBNZ6MRFUOMDUOLCC8ZU36BBDL89YZWM1TRHTZAVA5BYIFZJQ1EFHZXT1YG3BL6RQNA0BERX58MYRX0HD2F1NLBTHJERI46X0O7SSIJWMSZ54CNOSK077K0AHBOH1TR08VE05BYTBOKSTWQXU0H941AGHJH6CUVI2CGKUNGQJBCHY7WPF6X6IG0G3QHXMWJLR2KIWQWVH4DGCR9ZJE5HI17RJ68Z0LAX1BEOJGCXXU6HAG7RFI0LSC2BIF83OEJY309VK7VRE17Y8W1UVA2ETZOQ6B11L2I6RZYLLA3M0J0EEK025LQWS7CWBAB100YUCNTUCKP90NIECIFMIP7C8DSQHLGX7R64E566NGQEA0771SGO6EAR1F9W7EVP8R2FZEEFBENRG4LATO8PYIQAPHYGCMIDQQTMGZI8ILN9PVO4I5YDDS4IKM1BW9NWHR4U91LICZCUM7B90TYAHO7ODSKVS2MMXF1DZDPYL8U9CZ8EWPQ9TTBH7314URFL2DU3JVIAE2ZZFSGBKIVA5YN79L6X4W6TYJ6LBK2PCNS5H7LPDR2QV478QMO0VAKGOC31C0MIZULEEZ5WB61B74E25M25NDSV2PLUQFBP1POM9HQNSX3FVA4FPGNAW5IF4V5UY2EK0JBPJ6CXBO7FXET2I3T4615E8RNC2UVSEBRMG39X7XP0F164QPLNEGS68XUF5LPXQ6RG6DFGTN461MMT2ZRJ2VQ6UPIBGWET1SOVH02GRAMG2CA3GQ4PT72460P11MOJT2DHARPH0C34LEWOH23D5V7T4FNVMC7JNYZ3TIBGQ0VGDX69Q4GR3UW7ZJBIKBJFL9PJUPQ5861STGOYF6QRST8R59RN5HBDEGRXMFRFU8GM6YNJZHKY4A7PDMEFQTKKK513OO1YTRAD1Drrrr 995
2023-01-03 11:51:10,678 INFO:Message Generated From File /users/grad/ifath/amnis-data-sync/MFSTDataDir/355.txt
2023-01-03 11:51:10,678 INFO:      File has been sent ->  Topic: inputTopic; File ID: File: 996
2023-01-03 11:51:10,679 INFO:Topic-name: inputTopic; Message ID: 996; Message: 220PFFLPFBUAS1OO5W4UHXVX5FVOZDDL6J49BKWVTBBUR5UYI8Y4P9GH0O2D3STZBI8S7S4DJ6AB4UTWOUIJL400YP706TTODDW5KDT886O0OQN8WZU5YEVUM7YIEUV9CUP3B7EHG6P91U7QXELKCFH945N3TG0R0OHPAOHTSSJI1UXPEUBBHQDN0V0NQXYR9LR85B50UENAY449K2PTHE9NE3O3VXEPTL8SB5S9NNBZOYOKX29EV5Z4Q7YUZ0TKNJY1BSOGAN7YMHNX708H71GDV55IX8HX49D8V5VDQ2K6370JQCO44ZDVP5K8BEMS8XEKUHWDABIE5BT89J0P214QG67BYC1TZJ7KWSXU3FTB9WMF7KJHXJ7SOTYRSO13EL11OHFBPE88NL88PCKVUPFCOK4W8X9830S5HJ4MS52ABOVDOFCS53AD88ZOVQUWD3OQBCDSTIQZVQSIK8HD1YOQ85OISQYEPUNCYQ43NAZZ2MTNYE3OFRKBUQIA7JSMES0JO96KK16IO5VWYEIQJARX388BXWLIKA28N249CU163HZST7FZ11LPU6U943SJST6C9MZZJ85S74JGN35SJ21B1AOH2L8XA1QWRHW1NP549QKEHCXQ3RMPBH5TIDG5RTSBLF6QZGC4LW6SM1W61AAQ80LNYPUYLEQ2BA980ZLCVIAMRF6BN1GBNEGXL0ITC2F73JVPJ69GJ6YYBL911ORL9ACD9QMV8RE2MD4876T5MX1B2TQBLTQ6T0OIKBIP8JQC7AU3GZT8BW7U30B0MY3Q8ZQUYKUHIBPV61690Q1W79P1MV115BEVEUPD4ARJQO20J3HCTRZSEU3YAGHG9QYY35KCLNQXMP19M2H9NM78CBK728BBCHXPJ3FQTDOK5QKK16XA2D0TWICYTD1ZF0OSBFIOKP4FV183SNABFHUSUQGSEIH6AAYC3ZXOK37N4GU0O5ZWEOYRZ6I0AUH6C03FIUF3Z1W0V87JGHZZA2KR5ETD6ADDYCNB799NIUDWrrrr 996
2023-01-03 11:51:10,679 INFO:Message Generated From File /users/grad/ifath/amnis-data-sync/MFSTDataDir/335.txt
2023-01-03 11:51:10,679 INFO:      File has been sent ->  Topic: inputTopic; File ID: File: 997
2023-01-03 11:51:10,679 INFO:Topic-name: inputTopic; Message ID: 997; Message: JJCCDFDMN3U82ISJCYEPMQR7YU7COVJ3XO67IO0U4NLCAGXWUJ9T4B8NCO2OLQY80TJLB1OR00S0KCKZ5MNFTTEYGMCORQFAO6JPDINFMV0RK9F7VHGDUOM5BQ69ZP6G2BC6R9IYS5AU0C9EAM1F18JN10TNGDR8DX0OF3KVGG54RDQH955IZ2F76KJ4WGZEH35O98XPLT0PQHJ71GBH5BB0NLBWLS63CGVAFPWRG4L6W2UCROQQJOQUONW9GMJFRDSKSKW6MEHV938XW890UFG82PCVTGYHKMNBGLK78HR650DZZB5SGTCI6WYFPIAPA6CIM7B8CGVVNS6377EAP3MKXPMDFT39ARD72ES335VV7U0Q3304JODYRGEQL25MC23BE1726ZB4V999UNRIU8QX5H8Q6FF8KVTZH60JCXSGNS1G04WLPWA7VMOYBMZH8SFRYYWQQOJ2X3RE0GITKZWUDLCF4JVUBX3Y140JRROE3SU2QV2CRWU6EIJM16EE539IW79HG2XVW5C54JFXJOSBU2OCYJJLUPDLCRT5ZIUVAMU6FFCU1MP8PB63KJR8MYVRFBZEH58MA4O4Z6S350RTQI16QCINGQ3YVMUVIY1IPNAXHQJ4XN83M4RLAAEEF18LGOW4BV26OC63DEQSNC4PWDENXZ038HGCXJ7V5NDFEUL32ZQ0KVB4ZHTG7SJHVO2Y09EG61WOTUDVOZAEUGLQPYZL0IB3PGQI8F3ONSHAV2ATBZMB9S3P7GXKPI0IGGAIQURZA1UZWXFQ7QEBG389R762R2U67J0GMXTP18V90DX3QTAYPP0696KJ6WIKLANON8VBFHTYDJVAN1K49O6QIJLRE9JYKYS63H6LJU22ICQG13FDG3H6LEI30C7C2EIU2OS5J1V5UDSQYEY2OX0RJYJ2IBCAQMKN21013F1MJIA3ZYY58FUWVP8LWIH3G3D0H1IJJILRVY61H3OEH9QLGCR9RR6MA39TOQ4FGKZY5JHWR0SJ3AO0TR40CWVWrrrr 997
2023-01-03 11:51:10,679 INFO:Message Generated From File /users/grad/ifath/amnis-data-sync/MFSTDataDir/466.txt
2023-01-03 11:51:10,679 INFO:      File has been sent ->  Topic: inputTopic; File ID: File: 998
2023-01-03 11:51:10,679 INFO:Topic-name: inputTopic; Message ID: 998; Message: IDTHL75IMPVMIGWGUVARTCE2Z1EL51HW362J1K4W48F6UP80PDDRFMXLYAUMQ592Y3OYFS3XLWIUSYZ151VDIZZCDPFXNCG375LHH2RFDZF24L8A5O3IK70E5NW2FRGLZU5189T5FPDSE7WW0EKWCZ6R1434HR5SGFKEAOTD15E3DG3J6VHS6EYWNBKEW51V2ZRDYH9JTJEMXP5YO45IDG4X1DA2W3B9UYESZ1XXS8PCHO0WVRRYZ3TUYEDPODOHSUS5Z99UECQP8PY60ZQV7ADHTJO7VAPLL4ZYI16UCX4LHRK1H72BKZMDITSVP8CRNO8E0OP7D0RKYML9ZB7XFM0MRFK3XS0QL1XD24APCW254UWMSW9BJR341HIC1WAUP9CL87PAGXLGOME69W79YK629AWFHQA54BH404ULKB9UQ7WHTB2QSZST3D2U7S4KWJA30R7O1XH8VMXGHFNXF01LND8XIQ7UK2AEWBLBLGT10QM4HOC1XXKW6OQ5E23DCZVEERD9PWJITR1AFVV4NJKS9B7PZ1JUX1IC1IZ8GL6KSK44PTGMOKTH78CFQKIJRAPSNWFLA4BO1GVV8SHBXEFD2L1E9KWHCTRI2XV506SGGGTO25LELX4746PRCGTAOV0PH8GIC9VJH0Q4VAN1I3YXHQB9U9T5FWP63ACF8LAJW7GQ3VO6L2GVD9MPEY499FPE3938Y1LW0YS9QVVLYLJN8ZCF8NP0LZF2G9POO9ROLY5R3QHK3PA53MT87IAF6CPPQ3SJMJJ5LRUOZDPOWCJ2ZY4PE0VV9MEPPQ2VNZ82Z3JKW1NY2PDZ8FNKBCJQ8060CAPRPW6AYDBAD6N578I8ITDL12NHRP9Q6M3CEQ6T76I3DX9397VGJKV81G67V8KVJ8BHOJIST0I72I52NWF19CTJV2RAXFTAGSG5K6SMSZL5KDJL3GE73HSS1B1FKABSF0Y6PM502HOS53MEECZ4VR4QB4VI1Y83SQLPDLLBM68T8NG6TLKO6Q1BKD9Hrrrr 998
2023-01-03 11:51:10,679 INFO:Message Generated From File /users/grad/ifath/amnis-data-sync/MFSTDataDir/293.txt
2023-01-03 11:51:10,679 INFO:      File has been sent ->  Topic: inputTopic; File ID: File: 999
2023-01-03 11:51:10,679 INFO:Topic-name: inputTopic; Message ID: 999; Message: LNF2M0I92LFVL7H8G7TLQC58WC1GVL1DCX0226CEIQ4JBUL8MJIKHGLDHL7DV21YFQ92HPCRC1SS922H3N6C1AB3Y1YGDVYMDNG0Z1LT3DIMUCJAYAKD9GDV28RXYX79TU348PI32HJR3W4AEY3XJDO66GS0XRSMBGZ9OQ3A3B0QXRI42F6Z66EXN9E20LXTWUCUUWSQ020CZQ52H18Y6BSRWGFAZ5HZSEJ77J1CHUGEZM4J6OKREFNLWI8T9LHX8S1JD6TL868BL3N871VFMGHH94BYK5R7QHIV4JQJLAMKKUJMJ81SVCTC5FUO0DMJSP42CBUCQKZI3M0OGO9XBSVDYCIEGP8LMUVNDYP1SCZIVJRUNU2QERMG3RZWI2WYU824DPJXE6OMO5ZZEXLD7QWX8EL1S44DXVKGY95SOVCK151GI2IDYXBO01I3UG4NX6QQGUL1TRYTF4758UG62C1M5HQZ2H7D0DTMZZA9W6YERSTY9KQ5MCCAHAZ8RUDXY01DYKK36RYT34AD0H15O7ZCQCCSU1D7QTPF8LFSOH432K7ZRDOUKZRACF6IB2R8SUSMG8J5TRGO1N40T0ERL59FB0TY55P8XIKRUKQKH28REXDMCZ6GC91NNEMD4EKIMCX1EG4N4WWU4IIG8KN70TT0912L9SNMND4TWRMX4404KNR333G1PYDJMH1D6DNLKXL2QS73TEO6EMBERXQ6FWQQTHEU2FF1Y9AJR9I8H3BWMZ6TV9RP18QVAW6U6T23CDVS9C649I35TAW298K392WWD1W7ACLSS64H81OQQBRZJBOKNU9L6E2TPIQSFCHFJFZRHGQMSBPBDAKXYWAN4YK4AKO7K1M0GB74HQZY7888VVZQEBRIWTUXAIXS7BV4BCYWVZJOP183JB07AOOP44307A79YVDGTKLXHC25EV0VPH79I7YWCHBEQKY11NC96R1P8ZFB5FUZP6FX3SEWBWHE9AB5LAI2VISSXWZJGQRFP2QUZW9J3N60SYWAPCKPrrrr 999
2023-01-03 11:51:10,679 INFO:Message Generated From File /users/grad/ifath/amnis-data-sync/MFSTDataDir/703.txt
2023-01-03 11:51:10,679 INFO:      File has been sent ->  Topic: inputTopic; File ID: File: 1000
2023-01-03 11:51:10,680 INFO:Topic-name: inputTopic; Message ID: 1000; Message: 6TL9SFFN46K0VNKYB5COORBMDMU5E77HMMWLKTGGN58Y3MJF2Z7PU6B16WI5345PXX5AEPGQMXAB3NST5XV52NLCYKZYTFLY03QB9MEUMTZYGXLANHMPIUY8RGJI7LX8ZW1PR41O1W1CP99F2AWX1ML0VNUKINHMPTBSF81Y5BHC3L040ZDTBI0FVUAFCLPBTH2LF2BUN91PY4QY7N2YZPJXSH775QABXT13XDFHBPQYNAZ85HWU1ZWGWWRIEAPFTAG2OTCITG5UYBT6XBOCLA6D03XT0M15DGG5MCC3Y4XYOOOPZIQF9GKL69XV1VXEB8O3EOFQIRVSMB8QOSHUGF9HCZBOY03F30SAYQW1OQL8KRNUPXYYVVT10W8FPYAI4CHLX5W9CSAR4WHU47U2U18MOI38OP41ERY2OG3JPC98AJ7Z0YILR3MYE9BY7D04UEAH7FUGRTP34L6QVOK4EY4A6OM3L8IMKQC04Z0J8YDM2S4VP759YPCW1EGHU7C76F1YGDQN617F1JQVSUS9UO3BQ9ERKESUK9WBLMS2B9P3815UXFKHE4GDGR67DIU5VFQO83J9GLBJJ2KX7URGTUDBB67MUK2BZKU6JV6B6WRUC664P036DGJ5UY1VRJAGEXGF3Y95AL4JE4F7QU9AIZ5WVMUATXN3QHCWQKY5RQDHIKBO5MP9OMZ6LFBQKBYGV5EO0VYTT6QSHHG3BQ584XZFOXCWSO8CH7AF030H5MWD5SYWUL2ZRVM7XHNXBJJ5ZGQV1EFXNJM63DKSKMTZLE5QM53SUELF86T5GDVA5VDC3F222SCC60L8268TA1C3Y5P6B84LW1GW35NLS9RKI5AKLW5HD9GWKP897OKIEYTFUBYMGUQUE4NTU1SMICZLKEOYQ4KC7TPGNICYD2M226GM8I1WTI001BDUPMR3YGLC7091XLUS5MU5OSXT89GAB2UU2SFGDL8REIK49X9UKPKI3CDQQQXNBHGQR1X79T33D45EFB268BKEHNX6B83Urrrr 1000
2023-01-03 11:51:27,215 INFO:Closing the Kafka producer with 0 secs timeout.
2023-01-03 11:51:27,215 INFO:Proceeding to force close the producer since pending requests could not be completed within timeout 0.
